
OS:Version,
  {28d377e9-3a18-44ec-9740-8fe6a28fdaeb}, !- Handle
  2.1.0;                                  !- Version Identifier

OS:RunPeriod,
  {8c58fd5e-5ece-44e6-8276-6a3c6e48b593}, !- Handle
  Run Period 1,                           !- Name
  1,                                      !- Begin Month
  1,                                      !- Begin Day of Month
  12,                                     !- End Month
  31,                                     !- End Day of Month
  ,                                       !- Use Weather File Holidays and Special Days
  ,                                       !- Use Weather File Daylight Saving Period
  ,                                       !- Apply Weekend Holiday Rule
  ,                                       !- Use Weather File Rain Indicators
  ,                                       !- Use Weather File Snow Indicators
  ;                                       !- Number of Times Runperiod to be Repeated

OS:Timestep,
  {ff9ee89a-8dac-4e6b-98a8-620e123c1b19}, !- Handle
  6;                                      !- Number of Timesteps per Hour

OS:Building,
  {1fbf9106-e0ec-4298-bff7-9967effa1231}, !- Handle
  Building 1,                             !- Name
  ,                                       !- Building Sector Type
  0,                                      !- North Axis {deg}
  ,                                       !- Nominal Floor to Floor Height {m}
  ,                                       !- Space Type Name
  ,                                       !- Default Construction Set Name
  ;                                       !- Default Schedule Set Name

OS:Site,
  {3f943bf0-7f3c-464c-857e-19f1241d8b0b}, !- Handle
  Chicago Ohare Intl Ap	USA,              !- Name
  41.98,                                  !- Latitude {deg}
  -87.92,                                 !- Longitude {deg}
  -6,                                     !- Time Zone {hr}
  201,                                    !- Elevation {m}
  City;                                   !- Terrain

OS:SimulationControl,
  {13ded6fd-6f60-4819-9f15-95e9aac84667}, !- Handle
  Yes,                                    !- Do Zone Sizing Calculation
  Yes,                                    !- Do System Sizing Calculation
  Yes,                                    !- Do Plant Sizing Calculation
  No,                                     !- Run Simulation for Sizing Periods
  Yes,                                    !- Run Simulation for Weather File Run Periods
  ,                                       !- Loads Convergence Tolerance Value
  ,                                       !- Temperature Convergence Tolerance Value {deltaC}
  FullInteriorAndExteriorWithReflections; !- Solar Distribution

OS:ShadowCalculation,
  {72526d89-eb54-48b6-9806-21a1ace0446b}, !- Handle
  30,                                     !- Calculation Frequency
  3000;                                   !- Maximum Figures in Shadow Overlap Calculations

OS:Sizing:Parameters,
  {d942b549-004e-4c07-a9c1-dbcbd9a69782}, !- Handle
  1.25,                                   !- Heating Sizing Factor
  1.15;                                   !- Cooling Sizing Factor

OS:SizingPeriod:DesignDay,
  {cc65ab8a-0d83-483e-9775-3e71fbc5de68}, !- Handle
  Ann Clg .4% Condns DP=>MDB,             !- Name
  32.8,                                   !- Maximum Dry-Bulb Temperature {C}
  10.6,                                   !- Daily Dry-Bulb Temperature Range {deltaC}
  23.3,                                   !- Humidity Indicating Conditions at Maximum Dry-Bulb
  99188,                                  !- Barometric Pressure {Pa}
  6.2,                                    !- Wind Speed {m/s}
  191,                                    !- Wind Direction {deg}
  1.2,                                    !- Sky Clearness
  0,                                      !- Rain Indicator
  0,                                      !- Snow Indicator
  21,                                     !- Day of Month
  7,                                      !- Month
  SummerDesignDay,                        !- Day Type
  0,                                      !- Daylight Saving Time Indicator
  Dewpoint,                               !- Humidity Indicating Type
  ,                                       !- Humidity Indicating Day Schedule Name
  DefaultMultipliers,                     !- Dry-Bulb Temperature Range Modifier Type
  ,                                       !- Dry-Bulb Temperature Range Modifier Schedule Name
  ASHRAEClearSky;                         !- Solar Model Indicator

OS:SizingPeriod:DesignDay,
  {4940f4cd-fe48-4d99-a951-9372de77996e}, !- Handle
  Ann Htg Wind 99.6% Condns WS=>MCDB,     !- Name
  -2.2,                                   !- Maximum Dry-Bulb Temperature {C}
  0,                                      !- Daily Dry-Bulb Temperature Range {deltaC}
  -2.2,                                   !- Humidity Indicating Conditions at Maximum Dry-Bulb
  99188,                                  !- Barometric Pressure {Pa}
  12.4,                                   !- Wind Speed {m/s}
  241,                                    !- Wind Direction {deg}
  0,                                      !- Sky Clearness
  0,                                      !- Rain Indicator
  0,                                      !- Snow Indicator
  21,                                     !- Day of Month
  1,                                      !- Month
  WinterDesignDay,                        !- Day Type
  0,                                      !- Daylight Saving Time Indicator
  Wetbulb,                                !- Humidity Indicating Type
  ,                                       !- Humidity Indicating Day Schedule Name
  DefaultMultipliers,                     !- Dry-Bulb Temperature Range Modifier Type
  ,                                       !- Dry-Bulb Temperature Range Modifier Schedule Name
  ASHRAEClearSky;                         !- Solar Model Indicator

OS:SizingPeriod:DesignDay,
  {d85a2fb4-4604-4b5a-b454-99f9092d673f}, !- Handle
  Ann Htg 99.6% Condns DB,                !- Name
  -20,                                    !- Maximum Dry-Bulb Temperature {C}
  0,                                      !- Daily Dry-Bulb Temperature Range {deltaC}
  -20,                                    !- Humidity Indicating Conditions at Maximum Dry-Bulb
  99188,                                  !- Barometric Pressure {Pa}
  5.2,                                    !- Wind Speed {m/s}
  241,                                    !- Wind Direction {deg}
  0,                                      !- Sky Clearness
  0,                                      !- Rain Indicator
  0,                                      !- Snow Indicator
  21,                                     !- Day of Month
  1,                                      !- Month
  WinterDesignDay,                        !- Day Type
  0,                                      !- Daylight Saving Time Indicator
  Wetbulb,                                !- Humidity Indicating Type
  ,                                       !- Humidity Indicating Day Schedule Name
  DefaultMultipliers,                     !- Dry-Bulb Temperature Range Modifier Type
  ,                                       !- Dry-Bulb Temperature Range Modifier Schedule Name
  ASHRAEClearSky;                         !- Solar Model Indicator

OS:SizingPeriod:DesignDay,
  {ae86890b-88b2-450f-8269-1980fb26283d}, !- Handle
  Ann Clg .4% Condns Enth=>MDB,           !- Name
  31.7,                                   !- Maximum Dry-Bulb Temperature {C}
  10.6,                                   !- Daily Dry-Bulb Temperature Range {deltaC}
  78779,                                  !- Humidity Indicating Conditions at Maximum Dry-Bulb
  99188,                                  !- Barometric Pressure {Pa}
  6.2,                                    !- Wind Speed {m/s}
  191,                                    !- Wind Direction {deg}
  1.2,                                    !- Sky Clearness
  0,                                      !- Rain Indicator
  0,                                      !- Snow Indicator
  21,                                     !- Day of Month
  7,                                      !- Month
  SummerDesignDay,                        !- Day Type
  0,                                      !- Daylight Saving Time Indicator
  Enthalpy,                               !- Humidity Indicating Type
  ,                                       !- Humidity Indicating Day Schedule Name
  DefaultMultipliers,                     !- Dry-Bulb Temperature Range Modifier Type
  ,                                       !- Dry-Bulb Temperature Range Modifier Schedule Name
  ASHRAEClearSky;                         !- Solar Model Indicator

OS:SizingPeriod:DesignDay,
  {b19b5ba2-c35e-4fcd-a8f3-2064f49051e5}, !- Handle
  Ann Hum_n 99.6% Condns DP=>MCDB,        !- Name
  -17.8,                                  !- Maximum Dry-Bulb Temperature {C}
  0,                                      !- Daily Dry-Bulb Temperature Range {deltaC}
  -26.7,                                  !- Humidity Indicating Conditions at Maximum Dry-Bulb
  99188,                                  !- Barometric Pressure {Pa}
  5.2,                                    !- Wind Speed {m/s}
  241,                                    !- Wind Direction {deg}
  0,                                      !- Sky Clearness
  0,                                      !- Rain Indicator
  0,                                      !- Snow Indicator
  21,                                     !- Day of Month
  1,                                      !- Month
  WinterDesignDay,                        !- Day Type
  0,                                      !- Daylight Saving Time Indicator
  Dewpoint,                               !- Humidity Indicating Type
  ,                                       !- Humidity Indicating Day Schedule Name
  DefaultMultipliers,                     !- Dry-Bulb Temperature Range Modifier Type
  ,                                       !- Dry-Bulb Temperature Range Modifier Schedule Name
  ASHRAEClearSky;                         !- Solar Model Indicator

OS:SizingPeriod:DesignDay,
  {21022a0e-5e64-4c73-b458-d9700cb93334}, !- Handle
  Ann Clg .4% Condns WB=>MDB,             !- Name
  31.7,                                   !- Maximum Dry-Bulb Temperature {C}
  10.6,                                   !- Daily Dry-Bulb Temperature Range {deltaC}
  25.54,                                  !- Humidity Indicating Conditions at Maximum Dry-Bulb
  99188,                                  !- Barometric Pressure {Pa}
  6.2,                                    !- Wind Speed {m/s}
  191,                                    !- Wind Direction {deg}
  1.2,                                    !- Sky Clearness
  0,                                      !- Rain Indicator
  0,                                      !- Snow Indicator
  21,                                     !- Day of Month
  7,                                      !- Month
  SummerDesignDay,                        !- Day Type
  0,                                      !- Daylight Saving Time Indicator
  Wetbulb,                                !- Humidity Indicating Type
  ,                                       !- Humidity Indicating Day Schedule Name
  DefaultMultipliers,                     !- Dry-Bulb Temperature Range Modifier Type
  ,                                       !- Dry-Bulb Temperature Range Modifier Schedule Name
  ASHRAEClearSky;                         !- Solar Model Indicator

OS:SizingPeriod:DesignDay,
  {42b451bd-c011-40e9-90ba-7bcd25f5a63a}, !- Handle
  Ann Clg .4% Condns DB=>MWB,             !- Name
  32.2,                                   !- Maximum Dry-Bulb Temperature {C}
  10.6,                                   !- Daily Dry-Bulb Temperature Range {deltaC}
  25.441,                                 !- Humidity Indicating Conditions at Maximum Dry-Bulb
  99188,                                  !- Barometric Pressure {Pa}
  6.2,                                    !- Wind Speed {m/s}
  191,                                    !- Wind Direction {deg}
  1.2,                                    !- Sky Clearness
  0,                                      !- Rain Indicator
  0,                                      !- Snow Indicator
  21,                                     !- Day of Month
  7,                                      !- Month
  SummerDesignDay,                        !- Day Type
  0,                                      !- Daylight Saving Time Indicator
  Wetbulb,                                !- Humidity Indicating Type
  ,                                       !- Humidity Indicating Day Schedule Name
  DefaultMultipliers,                     !- Dry-Bulb Temperature Range Modifier Type
  ,                                       !- Dry-Bulb Temperature Range Modifier Schedule Name
  ASHRAEClearSky;                         !- Solar Model Indicator

OS:BuildingStory,
  {90ddcc48-bafc-4f5d-ab1b-ce7a5ee5b4f6}, !- Handle
  Building Story 1,                       !- Name
  0,                                      !- Nominal Z Coordinate {m}
  ,                                       !- Nominal Floor to Floor Height {m}
  ,                                       !- Default Construction Set Name
  ,                                       !- Default Schedule Set Name
  ;                                       !- Group Rendering Name

OS:BuildingStory,
  {f01a57d1-738b-429b-8fda-4c7639e2d54b}, !- Handle
  Building Story 2,                       !- Name
  0,                                      !- Nominal Z Coordinate {m}
  ,                                       !- Nominal Floor to Floor Height {m}
  ,                                       !- Default Construction Set Name
  ,                                       !- Default Schedule Set Name
  ;                                       !- Group Rendering Name

OS:Space,
  {2a812485-d949-491c-affd-808d95d2cdd2}, !- Handle
  zone_0_space,                           !- Name
  {6b558c55-9df5-440c-bfdc-691de7d1e18d}, !- Space Type Name
  ,                                       !- Default Construction Set Name
  {e0a085c1-b951-46c0-983f-65f221ed655e}, !- Default Schedule Set Name
  ,                                       !- Direction of Relative North {deg}
  ,                                       !- X Origin {m}
  ,                                       !- Y Origin {m}
  ,                                       !- Z Origin {m}
  {f01a57d1-738b-429b-8fda-4c7639e2d54b}, !- Building Story Name
  {7884bda8-e17e-400b-9978-f4e055eaad6c}, !- Thermal Zone Name
  ,                                       !- Part of Total Floor Area
  {3b235f8d-089d-444b-9a10-edb519ac944e}; !- Design Specification Outdoor Air Object Name

OS:SpaceType,
  {6b558c55-9df5-440c-bfdc-691de7d1e18d}, !- Handle
  Office:Corridor;                        !- Name

OS:DefaultScheduleSet,
  {e0a085c1-b951-46c0-983f-65f221ed655e}, !- Handle
  zone_0_DefaultScheduleSet,              !- Name
  {2b63f628-ea20-438f-a1ef-6a939383f5ef}, !- Hours of Operation Schedule Name
  ,                                       !- Number of People Schedule Name
  {71491f90-6f67-4799-9ce3-cbf728996426}, !- People Activity Level Schedule Name
  {39253f18-cd81-4b8c-8eeb-475da6fb5d2e}, !- Lighting Schedule Name
  {bd19cb71-f17c-40c5-9270-c5e653ab2e86}, !- Electric Equipment Schedule Name
  ,                                       !- Gas Equipment Schedule Name
  ,                                       !- Hot Water Equipment Schedule Name
  {8e15853a-6a5a-479f-ad6b-874db7b2d210}, !- Infiltration Schedule Name
  ,                                       !- Steam Equipment Schedule Name
  ;                                       !- Other Equipment Schedule Name

OS:ScheduleTypeLimits,
  {580068f3-1d36-465f-be08-1627e74063fd}, !- Handle
  Schedule Type Limits 1,                 !- Name
  0,                                      !- Lower Limit Value
  1,                                      !- Upper Limit Value
  CONTINUOUS;                             !- Numeric Type

OS:Schedule:Year,
  {8e15853a-6a5a-479f-ad6b-874db7b2d210}, !- Handle
  Medium Office Infil Quarter On,         !- Name
  {580068f3-1d36-465f-be08-1627e74063fd}, !- Schedule Type Limits Name
  1,                                      !- Month 1
  3,                                      !- Day 1
  {d7a3a7b3-621f-4e3e-8779-8604b8ab901b}, !- Week Schedule Until Date 1
  12,                                     !- Month 2
  31,                                     !- Day 2
  {43de6f0e-f54a-4ec7-a0a6-af00df5dcaf2}; !- Week Schedule Until Date 2

OS:Schedule:Week,
  {d7a3a7b3-621f-4e3e-8779-8604b8ab901b}, !- Handle
  Schedule:Week:Daily {10ec3e5a-5294-46cc-8ada-f12e209007b8}, !- Name
  ,                                       !- Schedule Rendering Name
  {ca26ed9d-1a80-4a95-9af2-295fa29555bf}, !- Sunday Schedule:Day Name
  {ca26ed9d-1a80-4a95-9af2-295fa29555bf}, !- Monday Schedule:Day Name
  {ca26ed9d-1a80-4a95-9af2-295fa29555bf}, !- Tuesday Schedule:Day Name
  {ca26ed9d-1a80-4a95-9af2-295fa29555bf}, !- Wednesday Schedule:Day Name
  {ca26ed9d-1a80-4a95-9af2-295fa29555bf}, !- Thursday Schedule:Day Name
  {ca26ed9d-1a80-4a95-9af2-295fa29555bf}, !- Friday Schedule:Day Name
  {ffafe0a8-9d16-423c-bf1d-bc93d74782d8}, !- Saturday Schedule:Day Name
  {ca26ed9d-1a80-4a95-9af2-295fa29555bf}, !- Holiday Schedule:Day Name
  {ea7f9e3e-663d-4bfc-9c53-635909c876df}, !- SummerDesignDay Schedule:Day Name
  {e96d3123-709f-437c-b29d-24743f8731fc}, !- WinterDesignDay Schedule:Day Name
  {ca26ed9d-1a80-4a95-9af2-295fa29555bf}, !- CustomDay1 Schedule:Day Name
  {ca26ed9d-1a80-4a95-9af2-295fa29555bf}; !- CustomDay2 Schedule:Day Name

OS:Schedule:Day,
  {ca26ed9d-1a80-4a95-9af2-295fa29555bf}, !- Handle
  Medium Office Infil Quarter On Default Schedule, !- Name
  {580068f3-1d36-465f-be08-1627e74063fd}, !- Schedule Type Limits Name
  ,                                       !- Interpolate to Timestep
  6,                                      !- Hour 1
  0,                                      !- Minute 1
  1,                                      !- Value Until Time 1
  22,                                     !- Hour 2
  0,                                      !- Minute 2
  0.25,                                   !- Value Until Time 2
  24,                                     !- Hour 3
  0,                                      !- Minute 3
  1;                                      !- Value Until Time 3

OS:Schedule:Day,
  {ffafe0a8-9d16-423c-bf1d-bc93d74782d8}, !- Handle
  Medium Office Infil Quarter On Rule 2 Day Schedule, !- Name
  {580068f3-1d36-465f-be08-1627e74063fd}, !- Schedule Type Limits Name
  ,                                       !- Interpolate to Timestep
  6,                                      !- Hour 1
  0,                                      !- Minute 1
  1,                                      !- Value Until Time 1
  18,                                     !- Hour 2
  0,                                      !- Minute 2
  0.25,                                   !- Value Until Time 2
  24,                                     !- Hour 3
  0,                                      !- Minute 3
  1;                                      !- Value Until Time 3

OS:Schedule:Day,
  {ea7f9e3e-663d-4bfc-9c53-635909c876df}, !- Handle
  Medium Office Infil Quarter On Summer Design Day, !- Name
  {580068f3-1d36-465f-be08-1627e74063fd}, !- Schedule Type Limits Name
  ,                                       !- Interpolate to Timestep
  6,                                      !- Hour 1
  0,                                      !- Minute 1
  1,                                      !- Value Until Time 1
  22,                                     !- Hour 2
  0,                                      !- Minute 2
  0.25,                                   !- Value Until Time 2
  24,                                     !- Hour 3
  0,                                      !- Minute 3
  1;                                      !- Value Until Time 3

OS:Schedule:Day,
  {e96d3123-709f-437c-b29d-24743f8731fc}, !- Handle
  Medium Office Infil Quarter On Winter Design Day, !- Name
  {580068f3-1d36-465f-be08-1627e74063fd}, !- Schedule Type Limits Name
  ,                                       !- Interpolate to Timestep
  6,                                      !- Hour 1
  0,                                      !- Minute 1
  1,                                      !- Value Until Time 1
  18,                                     !- Hour 2
  0,                                      !- Minute 2
  0.25,                                   !- Value Until Time 2
  24,                                     !- Hour 3
  0,                                      !- Minute 3
  1;                                      !- Value Until Time 3

OS:YearDescription,
  {d420658e-2543-4bd7-ae12-a0bf056d2854}; !- Handle

OS:Schedule:Week,
  {43de6f0e-f54a-4ec7-a0a6-af00df5dcaf2}, !- Handle
  Schedule:Week:Daily {20898e88-71dc-48a1-8bf4-30a1d78b98f6}, !- Name
  ,                                       !- Schedule Rendering Name
  {c2a4fbbf-e69c-44af-9d0d-7be04075805e}, !- Sunday Schedule:Day Name
  {ca26ed9d-1a80-4a95-9af2-295fa29555bf}, !- Monday Schedule:Day Name
  {ca26ed9d-1a80-4a95-9af2-295fa29555bf}, !- Tuesday Schedule:Day Name
  {ca26ed9d-1a80-4a95-9af2-295fa29555bf}, !- Wednesday Schedule:Day Name
  {ca26ed9d-1a80-4a95-9af2-295fa29555bf}, !- Thursday Schedule:Day Name
  {ca26ed9d-1a80-4a95-9af2-295fa29555bf}, !- Friday Schedule:Day Name
  {ffafe0a8-9d16-423c-bf1d-bc93d74782d8}, !- Saturday Schedule:Day Name
  {ca26ed9d-1a80-4a95-9af2-295fa29555bf}, !- Holiday Schedule:Day Name
  {ea7f9e3e-663d-4bfc-9c53-635909c876df}, !- SummerDesignDay Schedule:Day Name
  {e96d3123-709f-437c-b29d-24743f8731fc}, !- WinterDesignDay Schedule:Day Name
  {ca26ed9d-1a80-4a95-9af2-295fa29555bf}, !- CustomDay1 Schedule:Day Name
  {ca26ed9d-1a80-4a95-9af2-295fa29555bf}; !- CustomDay2 Schedule:Day Name

OS:Schedule:Day,
  {c2a4fbbf-e69c-44af-9d0d-7be04075805e}, !- Handle
  Medium Office Infil Quarter On Rule 1 Day Schedule, !- Name
  {580068f3-1d36-465f-be08-1627e74063fd}, !- Schedule Type Limits Name
  ,                                       !- Interpolate to Timestep
  24,                                     !- Hour 1
  0,                                      !- Minute 1
  1;                                      !- Value Until Time 1

OS:Schedule:Year,
  {39253f18-cd81-4b8c-8eeb-475da6fb5d2e}, !- Handle
  Office Bldg Light,                      !- Name
  {580068f3-1d36-465f-be08-1627e74063fd}, !- Schedule Type Limits Name
  1,                                      !- Month 1
  3,                                      !- Day 1
  {b2749856-41de-472b-a1c2-7cbe34f901a7}, !- Week Schedule Until Date 1
  12,                                     !- Month 2
  31,                                     !- Day 2
  {89b9edd6-64b4-439e-bfa7-2cad56c5b93c}; !- Week Schedule Until Date 2

OS:Schedule:Week,
  {b2749856-41de-472b-a1c2-7cbe34f901a7}, !- Handle
  Schedule:Week:Daily {77782ce5-1a70-49a7-b72d-db0988271982}, !- Name
  ,                                       !- Schedule Rendering Name
  {385c44af-71aa-42e1-9cbb-d96197d2b5a6}, !- Sunday Schedule:Day Name
  {385c44af-71aa-42e1-9cbb-d96197d2b5a6}, !- Monday Schedule:Day Name
  {385c44af-71aa-42e1-9cbb-d96197d2b5a6}, !- Tuesday Schedule:Day Name
  {385c44af-71aa-42e1-9cbb-d96197d2b5a6}, !- Wednesday Schedule:Day Name
  {385c44af-71aa-42e1-9cbb-d96197d2b5a6}, !- Thursday Schedule:Day Name
  {385c44af-71aa-42e1-9cbb-d96197d2b5a6}, !- Friday Schedule:Day Name
  {dc049f3b-0716-46e7-904d-2e36791bf123}, !- Saturday Schedule:Day Name
  {385c44af-71aa-42e1-9cbb-d96197d2b5a6}, !- Holiday Schedule:Day Name
  {d851fed9-f322-4216-acf6-e01a81f666f0}, !- SummerDesignDay Schedule:Day Name
  {53d1e50d-0cca-4e17-a852-281bdb2ab412}, !- WinterDesignDay Schedule:Day Name
  {385c44af-71aa-42e1-9cbb-d96197d2b5a6}, !- CustomDay1 Schedule:Day Name
  {385c44af-71aa-42e1-9cbb-d96197d2b5a6}; !- CustomDay2 Schedule:Day Name

OS:Schedule:Day,
  {385c44af-71aa-42e1-9cbb-d96197d2b5a6}, !- Handle
  Office Bldg Light Default Schedule,     !- Name
  {580068f3-1d36-465f-be08-1627e74063fd}, !- Schedule Type Limits Name
  ,                                       !- Interpolate to Timestep
  5,                                      !- Hour 1
  0,                                      !- Minute 1
  0.05,                                   !- Value Until Time 1
  7,                                      !- Hour 2
  0,                                      !- Minute 2
  0.1,                                    !- Value Until Time 2
  8,                                      !- Hour 3
  0,                                      !- Minute 3
  0.3,                                    !- Value Until Time 3
  17,                                     !- Hour 4
  0,                                      !- Minute 4
  0.9,                                    !- Value Until Time 4
  18,                                     !- Hour 5
  0,                                      !- Minute 5
  0.7,                                    !- Value Until Time 5
  20,                                     !- Hour 6
  0,                                      !- Minute 6
  0.5,                                    !- Value Until Time 6
  22,                                     !- Hour 7
  0,                                      !- Minute 7
  0.3,                                    !- Value Until Time 7
  23,                                     !- Hour 8
  0,                                      !- Minute 8
  0.1,                                    !- Value Until Time 8
  24,                                     !- Hour 9
  0,                                      !- Minute 9
  0.05;                                   !- Value Until Time 9

OS:Schedule:Day,
  {dc049f3b-0716-46e7-904d-2e36791bf123}, !- Handle
  Office Bldg Light Rule 2 Day Schedule,  !- Name
  {580068f3-1d36-465f-be08-1627e74063fd}, !- Schedule Type Limits Name
  ,                                       !- Interpolate to Timestep
  6,                                      !- Hour 1
  0,                                      !- Minute 1
  0.05,                                   !- Value Until Time 1
  8,                                      !- Hour 2
  0,                                      !- Minute 2
  0.1,                                    !- Value Until Time 2
  14,                                     !- Hour 3
  0,                                      !- Minute 3
  0.5,                                    !- Value Until Time 3
  17,                                     !- Hour 4
  0,                                      !- Minute 4
  0.15,                                   !- Value Until Time 4
  24,                                     !- Hour 5
  0,                                      !- Minute 5
  0.05;                                   !- Value Until Time 5

OS:Schedule:Day,
  {d851fed9-f322-4216-acf6-e01a81f666f0}, !- Handle
  Office Bldg Light Summer Design Day,    !- Name
  {580068f3-1d36-465f-be08-1627e74063fd}, !- Schedule Type Limits Name
  ,                                       !- Interpolate to Timestep
  24,                                     !- Hour 1
  0,                                      !- Minute 1
  1;                                      !- Value Until Time 1

OS:Schedule:Day,
  {53d1e50d-0cca-4e17-a852-281bdb2ab412}, !- Handle
  Office Bldg Light Winter Design Day,    !- Name
  {580068f3-1d36-465f-be08-1627e74063fd}, !- Schedule Type Limits Name
  ,                                       !- Interpolate to Timestep
  24,                                     !- Hour 1
  0,                                      !- Minute 1
  0;                                      !- Value Until Time 1

OS:Schedule:Week,
  {89b9edd6-64b4-439e-bfa7-2cad56c5b93c}, !- Handle
  Schedule:Week:Daily {1558189b-593c-4115-b061-465417357844}, !- Name
  ,                                       !- Schedule Rendering Name
  {fb952b07-ed4a-47f1-9d80-7ca3600507ae}, !- Sunday Schedule:Day Name
  {385c44af-71aa-42e1-9cbb-d96197d2b5a6}, !- Monday Schedule:Day Name
  {385c44af-71aa-42e1-9cbb-d96197d2b5a6}, !- Tuesday Schedule:Day Name
  {385c44af-71aa-42e1-9cbb-d96197d2b5a6}, !- Wednesday Schedule:Day Name
  {385c44af-71aa-42e1-9cbb-d96197d2b5a6}, !- Thursday Schedule:Day Name
  {385c44af-71aa-42e1-9cbb-d96197d2b5a6}, !- Friday Schedule:Day Name
  {dc049f3b-0716-46e7-904d-2e36791bf123}, !- Saturday Schedule:Day Name
  {385c44af-71aa-42e1-9cbb-d96197d2b5a6}, !- Holiday Schedule:Day Name
  {d851fed9-f322-4216-acf6-e01a81f666f0}, !- SummerDesignDay Schedule:Day Name
  {53d1e50d-0cca-4e17-a852-281bdb2ab412}, !- WinterDesignDay Schedule:Day Name
  {385c44af-71aa-42e1-9cbb-d96197d2b5a6}, !- CustomDay1 Schedule:Day Name
  {385c44af-71aa-42e1-9cbb-d96197d2b5a6}; !- CustomDay2 Schedule:Day Name

OS:Schedule:Day,
  {fb952b07-ed4a-47f1-9d80-7ca3600507ae}, !- Handle
  Office Bldg Light Rule 1 Day Schedule,  !- Name
  {580068f3-1d36-465f-be08-1627e74063fd}, !- Schedule Type Limits Name
  ,                                       !- Interpolate to Timestep
  24,                                     !- Hour 1
  0,                                      !- Minute 1
  0.05;                                   !- Value Until Time 1

OS:Schedule:Year,