
OS:Version,
  {c2529386-6b91-410a-acfd-8d3c6f66c5b4}, !- Handle
  2.1.0;                                  !- Version Identifier

OS:RunPeriod,
  {b33466bf-f439-48c0-a254-e21814ef8b37}, !- Handle
  Run Period 1,                           !- Name
  1,                                      !- Begin Month
  1,                                      !- Begin Day of Month
  12,                                     !- End Month
  31,                                     !- End Day of Month
  ,                                       !- Use Weather File Holidays and Special Days
  ,                                       !- Use Weather File Daylight Saving Period
  ,                                       !- Apply Weekend Holiday Rule
  ,                                       !- Use Weather File Rain Indicators
  ,                                       !- Use Weather File Snow Indicators
  ;                                       !- Number of Times Runperiod to be Repeated

OS:Timestep,
  {52c1d586-8154-4969-a84c-60134967f761}, !- Handle
  6;                                      !- Number of Timesteps per Hour

OS:Building,
  {dbc24fbe-3395-4d92-b4a0-fad47ab2bc37}, !- Handle
  Building 1,                             !- Name
  ,                                       !- Building Sector Type
  90,                                     !- North Axis {deg}
  ,                                       !- Nominal Floor to Floor Height {m}
  ,                                       !- Space Type Name
  ,                                       !- Default Construction Set Name
  ;                                       !- Default Schedule Set Name

OS:Site,
  {b87a118e-bbfa-403f-82e7-80761f30fa6b}, !- Handle
  Chicago Ohare Intl Ap	USA,              !- Name
  41.98,                                  !- Latitude {deg}
  -87.92,                                 !- Longitude {deg}
  -6,                                     !- Time Zone {hr}
  201,                                    !- Elevation {m}
  City;                                   !- Terrain

OS:SimulationControl,
  {ea1de03a-b111-4940-a32b-e6ad83a43def}, !- Handle
  Yes,                                    !- Do Zone Sizing Calculation
  Yes,                                    !- Do System Sizing Calculation
  Yes,                                    !- Do Plant Sizing Calculation
  No,                                     !- Run Simulation for Sizing Periods
  Yes,                                    !- Run Simulation for Weather File Run Periods
  ,                                       !- Loads Convergence Tolerance Value
  ,                                       !- Temperature Convergence Tolerance Value {deltaC}
  FullInteriorAndExteriorWithReflections; !- Solar Distribution

OS:ShadowCalculation,
  {cafc056f-a9bc-4e50-bb4c-cfee80bb94f2}, !- Handle
  30,                                     !- Calculation Frequency
  3000;                                   !- Maximum Figures in Shadow Overlap Calculations

OS:Sizing:Parameters,
  {7f354160-08ea-470e-afc1-528de921d659}, !- Handle
  1.25,                                   !- Heating Sizing Factor
  1.15;                                   !- Cooling Sizing Factor

OS:SizingPeriod:DesignDay,
  {f5ca12b8-f922-4ec3-a43e-0b6dfcd3c097}, !- Handle
  Ann Htg 99.6% Condns DB,                !- Name
  -20,                                    !- Maximum Dry-Bulb Temperature {C}
  0,                                      !- Daily Dry-Bulb Temperature Range {deltaC}
  -20,                                    !- Humidity Indicating Conditions at Maximum Dry-Bulb
  99188,                                  !- Barometric Pressure {Pa}
  5.2,                                    !- Wind Speed {m/s}
  241,                                    !- Wind Direction {deg}
  0,                                      !- Sky Clearness
  0,                                      !- Rain Indicator
  0,                                      !- Snow Indicator
  21,                                     !- Day of Month
  1,                                      !- Month
  WinterDesignDay,                        !- Day Type
  0,                                      !- Daylight Saving Time Indicator
  Wetbulb,                                !- Humidity Indicating Type
  ,                                       !- Humidity Indicating Day Schedule Name
  DefaultMultipliers,                     !- Dry-Bulb Temperature Range Modifier Type
  ,                                       !- Dry-Bulb Temperature Range Modifier Schedule Name
  ASHRAEClearSky;                         !- Solar Model Indicator

OS:SizingPeriod:DesignDay,
  {2e6acdb4-37eb-4245-9cce-b81ed6d84e7a}, !- Handle
  Ann Hum_n 99.6% Condns DP=>MCDB,        !- Name
  -17.8,                                  !- Maximum Dry-Bulb Temperature {C}
  0,                                      !- Daily Dry-Bulb Temperature Range {deltaC}
  -26.7,                                  !- Humidity Indicating Conditions at Maximum Dry-Bulb
  99188,                                  !- Barometric Pressure {Pa}
  5.2,                                    !- Wind Speed {m/s}
  241,                                    !- Wind Direction {deg}
  0,                                      !- Sky Clearness
  0,                                      !- Rain Indicator
  0,                                      !- Snow Indicator
  21,                                     !- Day of Month
  1,                                      !- Month
  WinterDesignDay,                        !- Day Type
  0,                                      !- Daylight Saving Time Indicator
  Dewpoint,                               !- Humidity Indicating Type
  ,                                       !- Humidity Indicating Day Schedule Name
  DefaultMultipliers,                     !- Dry-Bulb Temperature Range Modifier Type
  ,                                       !- Dry-Bulb Temperature Range Modifier Schedule Name
  ASHRAEClearSky;                         !- Solar Model Indicator

OS:SizingPeriod:DesignDay,
  {61800af8-4ac3-403e-8fa9-9b36293e851a}, !- Handle
  Ann Clg .4% Condns WB=>MDB,             !- Name
  31.7,                                   !- Maximum Dry-Bulb Temperature {C}
  10.6,                                   !- Daily Dry-Bulb Temperature Range {deltaC}
  25.54,                                  !- Humidity Indicating Conditions at Maximum Dry-Bulb
  99188,                                  !- Barometric Pressure {Pa}
  6.2,                                    !- Wind Speed {m/s}
  191,                                    !- Wind Direction {deg}
  1.2,                                    !- Sky Clearness
  0,                                      !- Rain Indicator
  0,                                      !- Snow Indicator
  21,                                     !- Day of Month
  7,                                      !- Month
  SummerDesignDay,                        !- Day Type
  0,                                      !- Daylight Saving Time Indicator
  Wetbulb,                                !- Humidity Indicating Type
  ,                                       !- Humidity Indicating Day Schedule Name
  DefaultMultipliers,                     !- Dry-Bulb Temperature Range Modifier Type
  ,                                       !- Dry-Bulb Temperature Range Modifier Schedule Name
  ASHRAEClearSky;                         !- Solar Model Indicator

OS:SizingPeriod:DesignDay,
  {86db5612-e0f0-4845-a790-7878fc01fce3}, !- Handle
  Ann Clg .4% Condns Enth=>MDB,           !- Name
  31.7,                                   !- Maximum Dry-Bulb Temperature {C}
  10.6,                                   !- Daily Dry-Bulb Temperature Range {deltaC}
  78779,                                  !- Humidity Indicating Conditions at Maximum Dry-Bulb
  99188,                                  !- Barometric Pressure {Pa}
  6.2,                                    !- Wind Speed {m/s}
  191,                                    !- Wind Direction {deg}
  1.2,                                    !- Sky Clearness
  0,                                      !- Rain Indicator
  0,                                      !- Snow Indicator
  21,                                     !- Day of Month
  7,                                      !- Month
  SummerDesignDay,                        !- Day Type
  0,                                      !- Daylight Saving Time Indicator
  Enthalpy,                               !- Humidity Indicating Type
  ,                                       !- Humidity Indicating Day Schedule Name
  DefaultMultipliers,                     !- Dry-Bulb Temperature Range Modifier Type
  ,                                       !- Dry-Bulb Temperature Range Modifier Schedule Name
  ASHRAEClearSky;                         !- Solar Model Indicator

OS:SizingPeriod:DesignDay,
  {0075d5de-088c-41fb-bb7a-8e2193cda0ef}, !- Handle
  Ann Clg .4% Condns DB=>MWB,             !- Name
  32.2,                                   !- Maximum Dry-Bulb Temperature {C}
  10.6,                                   !- Daily Dry-Bulb Temperature Range {deltaC}
  25.441,                                 !- Humidity Indicating Conditions at Maximum Dry-Bulb
  99188,                                  !- Barometric Pressure {Pa}
  6.2,                                    !- Wind Speed {m/s}
  191,                                    !- Wind Direction {deg}
  1.2,                                    !- Sky Clearness
  0,                                      !- Rain Indicator
  0,                                      !- Snow Indicator
  21,                                     !- Day of Month
  7,                                      !- Month
  SummerDesignDay,                        !- Day Type
  0,                                      !- Daylight Saving Time Indicator
  Wetbulb,                                !- Humidity Indicating Type
  ,                                       !- Humidity Indicating Day Schedule Name
  DefaultMultipliers,                     !- Dry-Bulb Temperature Range Modifier Type
  ,                                       !- Dry-Bulb Temperature Range Modifier Schedule Name
  ASHRAEClearSky;                         !- Solar Model Indicator

OS:SizingPeriod:DesignDay,
  {023bba45-2d7a-4445-8125-4311986102e2}, !- Handle
  Ann Htg Wind 99.6% Condns WS=>MCDB,     !- Name
  -2.2,                                   !- Maximum Dry-Bulb Temperature {C}
  0,                                      !- Daily Dry-Bulb Temperature Range {deltaC}
  -2.2,                                   !- Humidity Indicating Conditions at Maximum Dry-Bulb
  99188,                                  !- Barometric Pressure {Pa}
  12.4,                                   !- Wind Speed {m/s}
  241,                                    !- Wind Direction {deg}
  0,                                      !- Sky Clearness
  0,                                      !- Rain Indicator
  0,                                      !- Snow Indicator
  21,                                     !- Day of Month
  1,                                      !- Month
  WinterDesignDay,                        !- Day Type
  0,                                      !- Daylight Saving Time Indicator
  Wetbulb,                                !- Humidity Indicating Type
  ,                                       !- Humidity Indicating Day Schedule Name
  DefaultMultipliers,                     !- Dry-Bulb Temperature Range Modifier Type
  ,                                       !- Dry-Bulb Temperature Range Modifier Schedule Name
  ASHRAEClearSky;                         !- Solar Model Indicator

OS:SizingPeriod:DesignDay,
  {a1392d40-4d4e-4705-b514-4b88f0c8ab4a}, !- Handle
  Ann Clg .4% Condns DP=>MDB,             !- Name
  32.8,                                   !- Maximum Dry-Bulb Temperature {C}
  10.6,                                   !- Daily Dry-Bulb Temperature Range {deltaC}
  23.3,                                   !- Humidity Indicating Conditions at Maximum Dry-Bulb
  99188,                                  !- Barometric Pressure {Pa}
  6.2,                                    !- Wind Speed {m/s}
  191,                                    !- Wind Direction {deg}
  1.2,                                    !- Sky Clearness
  0,                                      !- Rain Indicator
  0,                                      !- Snow Indicator
  21,                                     !- Day of Month
  7,                                      !- Month
  SummerDesignDay,                        !- Day Type
  0,                                      !- Daylight Saving Time Indicator
  Dewpoint,                               !- Humidity Indicating Type
  ,                                       !- Humidity Indicating Day Schedule Name
  DefaultMultipliers,                     !- Dry-Bulb Temperature Range Modifier Type
  ,                                       !- Dry-Bulb Temperature Range Modifier Schedule Name
  ASHRAEClearSky;                         !- Solar Model Indicator

OS:BuildingStory,
  {59eb3253-4100-482e-8bfb-3a0f43e94d57}, !- Handle
  Building Story 1,                       !- Name
  0,                                      !- Nominal Z Coordinate {m}
  ,                                       !- Nominal Floor to Floor Height {m}
  ,                                       !- Default Construction Set Name
  ,                                       !- Default Schedule Set Name
  ;                                       !- Group Rendering Name

OS:BuildingStory,
  {183861a4-97b0-47e5-8bb8-6f9ca7ccc920}, !- Handle
  Building Story 2,                       !- Name
  0,                                      !- Nominal Z Coordinate {m}
  ,                                       !- Nominal Floor to Floor Height {m}
  ,                                       !- Default Construction Set Name
  ,                                       !- Default Schedule Set Name
  ;                                       !- Group Rendering Name

OS:Space,
  {303d6f87-ca10-4900-b052-dbc61ea558d2}, !- Handle
  zone_0_space,                           !- Name
  {7c089b8c-7d1a-4f45-a9cd-3bdf988e8031}, !- Space Type Name
  ,                                       !- Default Construction Set Name
  {efb7d166-4206-49f8-a76e-d2d7c7fad91e}, !- Default Schedule Set Name
  ,                                       !- Direction of Relative North {deg}
  ,                                       !- X Origin {m}
  ,                                       !- Y Origin {m}
  ,                                       !- Z Origin {m}
  {183861a4-97b0-47e5-8bb8-6f9ca7ccc920}, !- Building Story Name
  {29b004e1-717c-4c22-b5f9-adee9fd5fdef}, !- Thermal Zone Name
  ,                                       !- Part of Total Floor Area
  {b14f8970-6522-49d6-b756-b0b56624cb49}; !- Design Specification Outdoor Air Object Name

OS:SpaceType,
  {7c089b8c-7d1a-4f45-a9cd-3bdf988e8031}, !- Handle
  Office:Corridor;                        !- Name

OS:DefaultScheduleSet,
  {efb7d166-4206-49f8-a76e-d2d7c7fad91e}, !- Handle
  zone_0_DefaultScheduleSet,              !- Name
  {cb5e1dc2-3ba3-4ba7-a1a4-f5287c21c293}, !- Hours of Operation Schedule Name
  ,                                       !- Number of People Schedule Name
  {2714d413-d7d9-4c44-93e5-30e499084d22}, !- People Activity Level Schedule Name
  {ad46c61d-7587-44fc-b842-893d4dfc5a9c}, !- Lighting Schedule Name
  {3cd329f1-fbf0-408e-9b0c-b53212be90fa}, !- Electric Equipment Schedule Name
  ,                                       !- Gas Equipment Schedule Name
  ,                                       !- Hot Water Equipment Schedule Name
  {a021a49c-9478-48d7-9821-20bbb0f300a1}, !- Infiltration Schedule Name
  ,                                       !- Steam Equipment Schedule Name
  ;                                       !- Other Equipment Schedule Name

OS:ScheduleTypeLimits,
  {23d86056-905d-40e8-adbe-de5cb6565a35}, !- Handle
  Schedule Type Limits 1,                 !- Name
  0,                                      !- Lower Limit Value
  1,                                      !- Upper Limit Value
  CONTINUOUS;                             !- Numeric Type

OS:Schedule:Year,
  {a021a49c-9478-48d7-9821-20bbb0f300a1}, !- Handle
  Medium Office Infil Quarter On,         !- Name
  {23d86056-905d-40e8-adbe-de5cb6565a35}, !- Schedule Type Limits Name
  1,                                      !- Month 1
  3,                                      !- Day 1
  {68804cd8-50b6-4e4f-9542-72b281a97231}, !- Week Schedule Until Date 1
  12,                                     !- Month 2
  31,                                     !- Day 2
  {5c9226bd-79cb-40df-8f8e-58514d528723}; !- Week Schedule Until Date 2

OS:Schedule:Week,
  {68804cd8-50b6-4e4f-9542-72b281a97231}, !- Handle
  Schedule:Week:Daily {10ec3e5a-5294-46cc-8ada-f12e209007b8}, !- Name
  ,                                       !- Schedule Rendering Name
  {ee9b3043-2d7b-4dd7-9310-5d15162800c6}, !- Sunday Schedule:Day Name
  {ee9b3043-2d7b-4dd7-9310-5d15162800c6}, !- Monday Schedule:Day Name
  {ee9b3043-2d7b-4dd7-9310-5d15162800c6}, !- Tuesday Schedule:Day Name
  {ee9b3043-2d7b-4dd7-9310-5d15162800c6}, !- Wednesday Schedule:Day Name
  {ee9b3043-2d7b-4dd7-9310-5d15162800c6}, !- Thursday Schedule:Day Name
  {ee9b3043-2d7b-4dd7-9310-5d15162800c6}, !- Friday Schedule:Day Name
  {9675c569-ddd6-438c-b6ce-c7a4c3670595}, !- Saturday Schedule:Day Name
  {ee9b3043-2d7b-4dd7-9310-5d15162800c6}, !- Holiday Schedule:Day Name
  {776ee4cb-056d-4b4c-ba22-800076fc98af}, !- SummerDesignDay Schedule:Day Name
  {e96bf067-5c46-458c-a421-7f098dba8e7f}, !- WinterDesignDay Schedule:Day Name
  {ee9b3043-2d7b-4dd7-9310-5d15162800c6}, !- CustomDay1 Schedule:Day Name
  {ee9b3043-2d7b-4dd7-9310-5d15162800c6}; !- CustomDay2 Schedule:Day Name

OS:Schedule:Day,
  {ee9b3043-2d7b-4dd7-9310-5d15162800c6}, !- Handle
  Medium Office Infil Quarter On Default Schedule, !- Name
  {23d86056-905d-40e8-adbe-de5cb6565a35}, !- Schedule Type Limits Name
  ,                                       !- Interpolate to Timestep
  6,                                      !- Hour 1
  0,                                      !- Minute 1
  1,                                      !- Value Until Time 1
  22,                                     !- Hour 2
  0,                                      !- Minute 2
  0.25,                                   !- Value Until Time 2
  24,                                     !- Hour 3
  0,                                      !- Minute 3
  1;                                      !- Value Until Time 3

OS:Schedule:Day,
  {9675c569-ddd6-438c-b6ce-c7a4c3670595}, !- Handle
  Medium Office Infil Quarter On Rule 2 Day Schedule, !- Name
  {23d86056-905d-40e8-adbe-de5cb6565a35}, !- Schedule Type Limits Name
  ,                                       !- Interpolate to Timestep
  6,                                      !- Hour 1
  0,                                      !- Minute 1
  1,                                      !- Value Until Time 1
  18,                                     !- Hour 2
  0,                                      !- Minute 2
  0.25,                                   !- Value Until Time 2
  24,                                     !- Hour 3
  0,                                      !- Minute 3
  1;                                      !- Value Until Time 3

OS:Schedule:Day,
  {776ee4cb-056d-4b4c-ba22-800076fc98af}, !- Handle
  Medium Office Infil Quarter On Summer Design Day, !- Name
  {23d86056-905d-40e8-adbe-de5cb6565a35}, !- Schedule Type Limits Name
  ,                                       !- Interpolate to Timestep
  6,                                      !- Hour 1
  0,                                      !- Minute 1
  1,                                      !- Value Until Time 1
  22,                                     !- Hour 2
  0,                                      !- Minute 2
  0.25,                                   !- Value Until Time 2
  24,                                     !- Hour 3
  0,                                      !- Minute 3
  1;                                      !- Value Until Time 3

OS:Schedule:Day,
  {e96bf067-5c46-458c-a421-7f098dba8e7f}, !- Handle
  Medium Office Infil Quarter On Winter Design Day, !- Name
  {23d86056-905d-40e8-adbe-de5cb6565a35}, !- Schedule Type Limits Name
  ,                                       !- Interpolate to Timestep
  6,                                      !- Hour 1
  0,                                      !- Minute 1
  1,                                      !- Value Until Time 1
  18,                                     !- Hour 2
  0,                                      !- Minute 2
  0.25,                                   !- Value Until Time 2
  24,                                     !- Hour 3
  0,                                      !- Minute 3
  1;                                      !- Value Until Time 3

OS:YearDescription,
  {b8cbf9db-3959-48bd-b05e-d7f23dd7dc7d}; !- Handle

OS:Schedule:Week,
  {5c9226bd-79cb-40df-8f8e-58514d528723}, !- Handle
  Schedule:Week:Daily {20898e88-71dc-48a1-8bf4-30a1d78b98f6}, !- Name
  ,                                       !- Schedule Rendering Name
  {7f2902d3-11fd-4ea3-945b-26f4d8a7a713}, !- Sunday Schedule:Day Name
  {ee9b3043-2d7b-4dd7-9310-5d15162800c6}, !- Monday Schedule:Day Name
  {ee9b3043-2d7b-4dd7-9310-5d15162800c6}, !- Tuesday Schedule:Day Name
  {ee9b3043-2d7b-4dd7-9310-5d15162800c6}, !- Wednesday Schedule:Day Name
  {ee9b3043-2d7b-4dd7-9310-5d15162800c6}, !- Thursday Schedule:Day Name
  {ee9b3043-2d7b-4dd7-9310-5d15162800c6}, !- Friday Schedule:Day Name
  {9675c569-ddd6-438c-b6ce-c7a4c3670595}, !- Saturday Schedule:Day Name
  {ee9b3043-2d7b-4dd7-9310-5d15162800c6}, !- Holiday Schedule:Day Name
  {776ee4cb-056d-4b4c-ba22-800076fc98af}, !- SummerDesignDay Schedule:Day Name
  {e96bf067-5c46-458c-a421-7f098dba8e7f}, !- WinterDesignDay Schedule:Day Name
  {ee9b3043-2d7b-4dd7-9310-5d15162800c6}, !- CustomDay1 Schedule:Day Name
  {ee9b3043-2d7b-4dd7-9310-5d15162800c6}; !- CustomDay2 Schedule:Day Name

OS:Schedule:Day,
  {7f2902d3-11fd-4ea3-945b-26f4d8a7a713}, !- Handle
  Medium Office Infil Quarter On Rule 1 Day Schedule, !- Name
  {23d86056-905d-40e8-adbe-de5cb6565a35}, !- Schedule Type Limits Name
  ,                                       !- Interpolate to Timestep
  24,                                     !- Hour 1
  0,                                      !- Minute 1
  1;                                      !- Value Until Time 1

OS:Schedule:Year,
  {ad46c61d-7587-44fc-b842-893d4dfc5a9c}, !- Handle
  Office Bldg Light,                      !- Name
  {23d86056-905d-40e8-adbe-de5cb6565a35}, !- Schedule Type Limits Name
  1,                                      !- Month 1
  3,                                      !- Day 1
  {dfda7310-b6a6-48d0-9906-d2b77790039e}, !- Week Schedule Until Date 1
  12,                                     !- Month 2
  31,                                     !- Day 2
  {c653d96d-250c-454e-b0f5-abcbd5700a75}; !- Week Schedule Until Date 2

OS:Schedule:Week,
  {dfda7310-b6a6-48d0-9906-d2b77790039e}, !- Handle
  Schedule:Week:Daily {77782ce5-1a70-49a7-b72d-db0988271982}, !- Name
  ,                                       !- Schedule Rendering Name
  {a6f08bf7-b218-48d7-8c14-cb9a58ba9bb6}, !- Sunday Schedule:Day Name
  {a6f08bf7-b218-48d7-8c14-cb9a58ba9bb6}, !- Monday Schedule:Day Name
  {a6f08bf7-b218-48d7-8c14-cb9a58ba9bb6}, !- Tuesday Schedule:Day Name
  {a6f08bf7-b218-48d7-8c14-cb9a58ba9bb6}, !- Wednesday Schedule:Day Name
  {a6f08bf7-b218-48d7-8c14-cb9a58ba9bb6}, !- Thursday Schedule:Day Name
  {a6f08bf7-b218-48d7-8c14-cb9a58ba9bb6}, !- Friday Schedule:Day Name
  {a541dd51-feec-46f0-9feb-b9dbfbd8aea6}, !- Saturday Schedule:Day Name
  {a6f08bf7-b218-48d7-8c14-cb9a58ba9bb6}, !- Holiday Schedule:Day Name
  {34bf41ff-ba68-4064-9aa9-578ca89e40c4}, !- SummerDesignDay Schedule:Day Name
  {cc943120-609a-471f-b2fb-3eff068f459a}, !- WinterDesignDay Schedule:Day Name
  {a6f08bf7-b218-48d7-8c14-cb9a58ba9bb6}, !- CustomDay1 Schedule:Day Name
  {a6f08bf7-b218-48d7-8c14-cb9a58ba9bb6}; !- CustomDay2 Schedule:Day Name

OS:Schedule:Day,
  {a6f08bf7-b218-48d7-8c14-cb9a58ba9bb6}, !- Handle
  Office Bldg Light Default Schedule,     !- Name
  {23d86056-905d-40e8-adbe-de5cb6565a35}, !- Schedule Type Limits Name
  ,                                       !- Interpolate to Timestep
  5,                                      !- Hour 1
  0,                                      !- Minute 1
  0.05,                                   !- Value Until Time 1
  7,                                      !- Hour 2
  0,                                      !- Minute 2
  0.1,                                    !- Value Until Time 2
  8,                                      !- Hour 3
  0,                                      !- Minute 3
  0.3,                                    !- Value Until Time 3
  17,                                     !- Hour 4
  0,                                      !- Minute 4
  0.9,                                    !- Value Until Time 4
  18,                                     !- Hour 5
  0,                                      !- Minute 5
  0.7,                                    !- Value Until Time 5
  20,                                     !- Hour 6
  0,                                      !- Minute 6
  0.5,                                    !- Value Until Time 6
  22,                                     !- Hour 7
  0,                                      !- Minute 7
  0.3,                                    !- Value Until Time 7
  23,                                     !- Hour 8
  0,                                      !- Minute 8
  0.1,                                    !- Value Until Time 8
  24,                                     !- Hour 9
  0,                                      !- Minute 9
  0.05;                                   !- Value Until Time 9

OS:Schedule:Day,
  {a541dd51-feec-46f0-9feb-b9dbfbd8aea6}, !- Handle
  Office Bldg Light Rule 2 Day Schedule,  !- Name
  {23d86056-905d-40e8-adbe-de5cb6565a35}, !- Schedule Type Limits Name
  ,                                       !- Interpolate to Timestep
  6,                                      !- Hour 1
  0,                                      !- Minute 1
  0.05,                                   !- Value Until Time 1
  8,                                      !- Hour 2
  0,                                      !- Minute 2
  0.1,                                    !- Value Until Time 2
  14,                                     !- Hour 3
  0,                                      !- Minute 3
  0.5,                                    !- Value Until Time 3
  17,                                     !- Hour 4
  0,                                      !- Minute 4
  0.15,                                   !- Value Until Time 4
  24,                                     !- Hour 5
  0,                                      !- Minute 5
  0.05;                                   !- Value Until Time 5

OS:Schedule:Day,
  {34bf41ff-ba68-4064-9aa9-578ca89e40c4}, !- Handle
  Office Bldg Light Summer Design Day,    !- Name
  {23d86056-905d-40e8-adbe-de5cb6565a35}, !- Schedule Type Limits Name
  ,                                       !- Interpolate to Timestep
  24,                                     !- Hour 1
  0,                                      !- Minute 1
  1;                                      !- Value Until Time 1

OS:Schedule:Day,
  {cc943120-609a-471f-b2fb-3eff068f459a}, !- Handle
  Office Bldg Light Winter Design Day,    !- Name
  {23d86056-905d-40e8-adbe-de5cb6565a35}, !- Schedule Type Limits Name
  ,                                       !- Interpolate to Timestep
  24,                                     !- Hour 1
  0,                                      !- Minute 1
  0;                                      !- Value Until Time 1

OS:Schedule:Week,
  {c653d96d-250c-454e-b0f5-abcbd5700a75}, !- Handle
  Schedule:Week:Daily {1558189b-593c-4115-b061-465417357844}, !- Name
  ,                                       !- Schedule Rendering Name
  {0c3844bf-b22b-49cd-b632-42c1ca7d27a3}, !- Sunday Schedule:Day Name
  {a6f08bf7-b218-48d7-8c14-cb9a58ba9bb6}, !- Monday Schedule:Day Name
  {a6f08bf7-b218-48d7-8c14-cb9a58ba9bb6}, !- Tuesday Schedule:Day Name
  {a6f08bf7-b218-48d7-8c14-cb9a58ba9bb6}, !- Wednesday Schedule:Day Name
  {a6f08bf7-b218-48d7-8c14-cb9a58ba9bb6}, !- Thursday Schedule:Day Name
  {a6f08bf7-b218-48d7-8c14-cb9a58ba9bb6}, !- Friday Schedule:Day Name
  {a541dd51-feec-46f0-9feb-b9dbfbd8aea6}, !- Saturday Schedule:Day Name
  {a6f08bf7-b218-48d7-8c14-cb9a58ba9bb6}, !- Holiday Schedule:Day Name
  {34bf41ff-ba68-4064-9aa9-578ca89e40c4}, !- SummerDesignDay Schedule:Day Name
  {cc943120-609a-471f-b2fb-3eff068f459a}, !- WinterDesignDay Schedule:Day Name
  {a6f08bf7-b218-48d7-8c14-cb9a58ba9bb6}, !- CustomDay1 Schedule:Day Name
  {a6f08bf7-b218-48d7-8c14-cb9a58ba9bb6}; !- CustomDay2 Schedule:Day Name

OS:Schedule:Day,
  {0c3844bf-b22b-49cd-b632-42c1ca7d27a3}, !- Handle
  Office Bldg Light Rule 1 Day Schedule,  !- Name
  {23d86056-905d-40e8-adbe-de5cb6565a35}, !- Schedule Type Limits Name
  ,                                       !- Interpolate to Timestep
  24,                                     !- Hour 1
  0,                                      !- Minute 1
  0.05;                                   !- Value Until Time 1

OS:Schedule:Year,