
OS:Version,
  {10a29586-55af-4bb0-9276-3fcf34ba1179}, !- Handle
  2.1.0;                                  !- Version Identifier

OS:RunPeriod,
  {c4921784-869b-4351-8ed3-103a9fe6dbc9}, !- Handle
  Run Period 1,                           !- Name
  1,                                      !- Begin Month
  1,                                      !- Begin Day of Month
  12,                                     !- End Month
  31,                                     !- End Day of Month
  ,                                       !- Use Weather File Holidays and Special Days
  ,                                       !- Use Weather File Daylight Saving Period
  ,                                       !- Apply Weekend Holiday Rule
  ,                                       !- Use Weather File Rain Indicators
  ,                                       !- Use Weather File Snow Indicators
  ;                                       !- Number of Times Runperiod to be Repeated

OS:Timestep,
  {9bb0498a-1729-4f13-ac66-cbd99287d5da}, !- Handle
  6;                                      !- Number of Timesteps per Hour

OS:Building,
  {bf9397f6-711a-48c8-bdb7-248ef661c053}, !- Handle
  Building 1,                             !- Name
  ,                                       !- Building Sector Type
  90,                                     !- North Axis {deg}
  ,                                       !- Nominal Floor to Floor Height {m}
  ,                                       !- Space Type Name
  ,                                       !- Default Construction Set Name
  ;                                       !- Default Schedule Set Name

OS:Site,
  {c684ff9a-79ee-4c49-8e8c-c75d713eeffa}, !- Handle
  Chicago Ohare Intl Ap	USA,              !- Name
  41.98,                                  !- Latitude {deg}
  -87.92,                                 !- Longitude {deg}
  -6,                                     !- Time Zone {hr}
  201,                                    !- Elevation {m}
  City;                                   !- Terrain

OS:SimulationControl,
  {f8c6c12b-83b2-4b4d-b0b5-c1ca2be7a1a6}, !- Handle
  Yes,                                    !- Do Zone Sizing Calculation
  Yes,                                    !- Do System Sizing Calculation
  Yes,                                    !- Do Plant Sizing Calculation
  No,                                     !- Run Simulation for Sizing Periods
  Yes,                                    !- Run Simulation for Weather File Run Periods
  ,                                       !- Loads Convergence Tolerance Value
  ,                                       !- Temperature Convergence Tolerance Value {deltaC}
  FullInteriorAndExteriorWithReflections; !- Solar Distribution

OS:ShadowCalculation,
  {1919bbcc-5204-46c1-a857-58177822234b}, !- Handle
  30,                                     !- Calculation Frequency
  3000;                                   !- Maximum Figures in Shadow Overlap Calculations

OS:Sizing:Parameters,
  {df5d963c-2f01-4b3e-b738-43ad8f5ce1ba}, !- Handle
  1.25,                                   !- Heating Sizing Factor
  1.15;                                   !- Cooling Sizing Factor

OS:SizingPeriod:DesignDay,
  {c58e7fa9-6fe5-43aa-81ff-714879654d15}, !- Handle
  Ann Clg .4% Condns WB=>MDB,             !- Name
  31.7,                                   !- Maximum Dry-Bulb Temperature {C}
  10.6,                                   !- Daily Dry-Bulb Temperature Range {deltaC}
  25.54,                                  !- Humidity Indicating Conditions at Maximum Dry-Bulb
  99188,                                  !- Barometric Pressure {Pa}
  6.2,                                    !- Wind Speed {m/s}
  191,                                    !- Wind Direction {deg}
  1.2,                                    !- Sky Clearness
  0,                                      !- Rain Indicator
  0,                                      !- Snow Indicator
  21,                                     !- Day of Month
  7,                                      !- Month
  SummerDesignDay,                        !- Day Type
  0,                                      !- Daylight Saving Time Indicator
  Wetbulb,                                !- Humidity Indicating Type
  ,                                       !- Humidity Indicating Day Schedule Name
  DefaultMultipliers,                     !- Dry-Bulb Temperature Range Modifier Type
  ,                                       !- Dry-Bulb Temperature Range Modifier Schedule Name
  ASHRAEClearSky;                         !- Solar Model Indicator

OS:SizingPeriod:DesignDay,
  {7c704879-2c63-42f7-b5c9-035d32149cd5}, !- Handle
  Ann Htg 99.6% Condns DB,                !- Name
  -20,                                    !- Maximum Dry-Bulb Temperature {C}
  0,                                      !- Daily Dry-Bulb Temperature Range {deltaC}
  -20,                                    !- Humidity Indicating Conditions at Maximum Dry-Bulb
  99188,                                  !- Barometric Pressure {Pa}
  5.2,                                    !- Wind Speed {m/s}
  241,                                    !- Wind Direction {deg}
  0,                                      !- Sky Clearness
  0,                                      !- Rain Indicator
  0,                                      !- Snow Indicator
  21,                                     !- Day of Month
  1,                                      !- Month
  WinterDesignDay,                        !- Day Type
  0,                                      !- Daylight Saving Time Indicator
  Wetbulb,                                !- Humidity Indicating Type
  ,                                       !- Humidity Indicating Day Schedule Name
  DefaultMultipliers,                     !- Dry-Bulb Temperature Range Modifier Type
  ,                                       !- Dry-Bulb Temperature Range Modifier Schedule Name
  ASHRAEClearSky;                         !- Solar Model Indicator

OS:SizingPeriod:DesignDay,
  {badc4880-3e66-4c9e-bad6-372a193c5433}, !- Handle
  Ann Clg .4% Condns DP=>MDB,             !- Name
  32.8,                                   !- Maximum Dry-Bulb Temperature {C}
  10.6,                                   !- Daily Dry-Bulb Temperature Range {deltaC}
  23.3,                                   !- Humidity Indicating Conditions at Maximum Dry-Bulb
  99188,                                  !- Barometric Pressure {Pa}
  6.2,                                    !- Wind Speed {m/s}
  191,                                    !- Wind Direction {deg}
  1.2,                                    !- Sky Clearness
  0,                                      !- Rain Indicator
  0,                                      !- Snow Indicator
  21,                                     !- Day of Month
  7,                                      !- Month
  SummerDesignDay,                        !- Day Type
  0,                                      !- Daylight Saving Time Indicator
  Dewpoint,                               !- Humidity Indicating Type
  ,                                       !- Humidity Indicating Day Schedule Name
  DefaultMultipliers,                     !- Dry-Bulb Temperature Range Modifier Type
  ,                                       !- Dry-Bulb Temperature Range Modifier Schedule Name
  ASHRAEClearSky;                         !- Solar Model Indicator

OS:SizingPeriod:DesignDay,
  {e3cf0232-24c8-41d2-aefa-fe1025e7549a}, !- Handle
  Ann Hum_n 99.6% Condns DP=>MCDB,        !- Name
  -17.8,                                  !- Maximum Dry-Bulb Temperature {C}
  0,                                      !- Daily Dry-Bulb Temperature Range {deltaC}
  -26.7,                                  !- Humidity Indicating Conditions at Maximum Dry-Bulb
  99188,                                  !- Barometric Pressure {Pa}
  5.2,                                    !- Wind Speed {m/s}
  241,                                    !- Wind Direction {deg}
  0,                                      !- Sky Clearness
  0,                                      !- Rain Indicator
  0,                                      !- Snow Indicator
  21,                                     !- Day of Month
  1,                                      !- Month
  WinterDesignDay,                        !- Day Type
  0,                                      !- Daylight Saving Time Indicator
  Dewpoint,                               !- Humidity Indicating Type
  ,                                       !- Humidity Indicating Day Schedule Name
  DefaultMultipliers,                     !- Dry-Bulb Temperature Range Modifier Type
  ,                                       !- Dry-Bulb Temperature Range Modifier Schedule Name
  ASHRAEClearSky;                         !- Solar Model Indicator

OS:SizingPeriod:DesignDay,
  {19f85a6f-9884-405a-b191-ed5d546c153c}, !- Handle
  Ann Htg Wind 99.6% Condns WS=>MCDB,     !- Name
  -2.2,                                   !- Maximum Dry-Bulb Temperature {C}
  0,                                      !- Daily Dry-Bulb Temperature Range {deltaC}
  -2.2,                                   !- Humidity Indicating Conditions at Maximum Dry-Bulb
  99188,                                  !- Barometric Pressure {Pa}
  12.4,                                   !- Wind Speed {m/s}
  241,                                    !- Wind Direction {deg}
  0,                                      !- Sky Clearness
  0,                                      !- Rain Indicator
  0,                                      !- Snow Indicator
  21,                                     !- Day of Month
  1,                                      !- Month
  WinterDesignDay,                        !- Day Type
  0,                                      !- Daylight Saving Time Indicator
  Wetbulb,                                !- Humidity Indicating Type
  ,                                       !- Humidity Indicating Day Schedule Name
  DefaultMultipliers,                     !- Dry-Bulb Temperature Range Modifier Type
  ,                                       !- Dry-Bulb Temperature Range Modifier Schedule Name
  ASHRAEClearSky;                         !- Solar Model Indicator

OS:SizingPeriod:DesignDay,
  {2efe80b5-da80-4783-91df-5eba486b5a78}, !- Handle
  Ann Clg .4% Condns Enth=>MDB,           !- Name
  31.7,                                   !- Maximum Dry-Bulb Temperature {C}
  10.6,                                   !- Daily Dry-Bulb Temperature Range {deltaC}
  78779,                                  !- Humidity Indicating Conditions at Maximum Dry-Bulb
  99188,                                  !- Barometric Pressure {Pa}
  6.2,                                    !- Wind Speed {m/s}
  191,                                    !- Wind Direction {deg}
  1.2,                                    !- Sky Clearness
  0,                                      !- Rain Indicator
  0,                                      !- Snow Indicator
  21,                                     !- Day of Month
  7,                                      !- Month
  SummerDesignDay,                        !- Day Type
  0,                                      !- Daylight Saving Time Indicator
  Enthalpy,                               !- Humidity Indicating Type
  ,                                       !- Humidity Indicating Day Schedule Name
  DefaultMultipliers,                     !- Dry-Bulb Temperature Range Modifier Type
  ,                                       !- Dry-Bulb Temperature Range Modifier Schedule Name
  ASHRAEClearSky;                         !- Solar Model Indicator

OS:SizingPeriod:DesignDay,
  {7362d06e-80cb-4e75-b9f6-7e8151f5c296}, !- Handle
  Ann Clg .4% Condns DB=>MWB,             !- Name
  32.2,                                   !- Maximum Dry-Bulb Temperature {C}
  10.6,                                   !- Daily Dry-Bulb Temperature Range {deltaC}
  25.441,                                 !- Humidity Indicating Conditions at Maximum Dry-Bulb
  99188,                                  !- Barometric Pressure {Pa}
  6.2,                                    !- Wind Speed {m/s}
  191,                                    !- Wind Direction {deg}
  1.2,                                    !- Sky Clearness
  0,                                      !- Rain Indicator
  0,                                      !- Snow Indicator
  21,                                     !- Day of Month
  7,                                      !- Month
  SummerDesignDay,                        !- Day Type
  0,                                      !- Daylight Saving Time Indicator
  Wetbulb,                                !- Humidity Indicating Type
  ,                                       !- Humidity Indicating Day Schedule Name
  DefaultMultipliers,                     !- Dry-Bulb Temperature Range Modifier Type
  ,                                       !- Dry-Bulb Temperature Range Modifier Schedule Name
  ASHRAEClearSky;                         !- Solar Model Indicator

OS:BuildingStory,
  {bfaa0c61-9c72-40d2-aaaf-60b8899fabd2}, !- Handle
  Building Story 1,                       !- Name
  0,                                      !- Nominal Z Coordinate {m}
  ,                                       !- Nominal Floor to Floor Height {m}
  ,                                       !- Default Construction Set Name
  ,                                       !- Default Schedule Set Name
  ;                                       !- Group Rendering Name

OS:BuildingStory,
  {076bb8a8-484f-49a7-87bf-66b41de86de9}, !- Handle
  Building Story 2,                       !- Name
  0,                                      !- Nominal Z Coordinate {m}
  ,                                       !- Nominal Floor to Floor Height {m}
  ,                                       !- Default Construction Set Name
  ,                                       !- Default Schedule Set Name
  ;                                       !- Group Rendering Name

OS:Space,
  {af557a5f-be86-4222-a139-02079e300645}, !- Handle
  zone_0_space,                           !- Name
  {bd0968a5-d076-4e3a-ab60-dcfab18f35ee}, !- Space Type Name
  ,                                       !- Default Construction Set Name
  {9cc3947c-c2ae-4257-a2f9-4e91488d1e6d}, !- Default Schedule Set Name
  ,                                       !- Direction of Relative North {deg}
  ,                                       !- X Origin {m}
  ,                                       !- Y Origin {m}
  ,                                       !- Z Origin {m}
  {076bb8a8-484f-49a7-87bf-66b41de86de9}, !- Building Story Name
  {1fe09705-5ddd-41e0-bcc4-7605aea8e9a2}, !- Thermal Zone Name
  ,                                       !- Part of Total Floor Area
  {243832fd-50e9-4c67-ac60-e94f3eae64b1}; !- Design Specification Outdoor Air Object Name

OS:SpaceType,
  {bd0968a5-d076-4e3a-ab60-dcfab18f35ee}, !- Handle
  Office:Corridor;                        !- Name

OS:DefaultScheduleSet,
  {9cc3947c-c2ae-4257-a2f9-4e91488d1e6d}, !- Handle
  zone_0_DefaultScheduleSet,              !- Name
  {5e651e0b-3b94-460a-b42c-a3f79bb71dc1}, !- Hours of Operation Schedule Name
  ,                                       !- Number of People Schedule Name
  {ae232323-8513-4f19-825c-b1c8b358d80d}, !- People Activity Level Schedule Name
  {814023e2-a3ec-4ac4-b595-6c07f08330d9}, !- Lighting Schedule Name
  {2dd4fc32-02e1-4e3f-8fed-e9f308b0a6da}, !- Electric Equipment Schedule Name
  ,                                       !- Gas Equipment Schedule Name
  ,                                       !- Hot Water Equipment Schedule Name
  {a4d74756-0490-49a4-883a-abe5d7a77a4f}, !- Infiltration Schedule Name
  ,                                       !- Steam Equipment Schedule Name
  ;                                       !- Other Equipment Schedule Name

OS:ScheduleTypeLimits,
  {b352ac37-3822-4e8f-8202-abb3d34e1137}, !- Handle
  Schedule Type Limits 1,                 !- Name
  0,                                      !- Lower Limit Value
  1,                                      !- Upper Limit Value
  CONTINUOUS;                             !- Numeric Type

OS:Schedule:Year,
  {a4d74756-0490-49a4-883a-abe5d7a77a4f}, !- Handle
  Medium Office Infil Quarter On,         !- Name
  {b352ac37-3822-4e8f-8202-abb3d34e1137}, !- Schedule Type Limits Name
  1,                                      !- Month 1
  3,                                      !- Day 1
  {4dacd3ce-bc7c-4c02-a5fa-a8de4728ca1b}, !- Week Schedule Until Date 1
  12,                                     !- Month 2
  31,                                     !- Day 2
  {3a225417-b41f-403b-b307-8050e999deed}; !- Week Schedule Until Date 2

OS:Schedule:Week,
  {4dacd3ce-bc7c-4c02-a5fa-a8de4728ca1b}, !- Handle
  Schedule:Week:Daily {10ec3e5a-5294-46cc-8ada-f12e209007b8}, !- Name
  ,                                       !- Schedule Rendering Name
  {94bcea93-4598-4409-b036-849e0000263d}, !- Sunday Schedule:Day Name
  {94bcea93-4598-4409-b036-849e0000263d}, !- Monday Schedule:Day Name
  {94bcea93-4598-4409-b036-849e0000263d}, !- Tuesday Schedule:Day Name
  {94bcea93-4598-4409-b036-849e0000263d}, !- Wednesday Schedule:Day Name
  {94bcea93-4598-4409-b036-849e0000263d}, !- Thursday Schedule:Day Name
  {94bcea93-4598-4409-b036-849e0000263d}, !- Friday Schedule:Day Name
  {e3335091-551b-46c0-a2f2-b15a8739476e}, !- Saturday Schedule:Day Name
  {94bcea93-4598-4409-b036-849e0000263d}, !- Holiday Schedule:Day Name
  {594420bb-0f81-4159-bf56-c55122196e41}, !- SummerDesignDay Schedule:Day Name
  {bda63616-fced-4a10-bd46-d9b4d5365b8e}, !- WinterDesignDay Schedule:Day Name
  {94bcea93-4598-4409-b036-849e0000263d}, !- CustomDay1 Schedule:Day Name
  {94bcea93-4598-4409-b036-849e0000263d}; !- CustomDay2 Schedule:Day Name

OS:Schedule:Day,
  {94bcea93-4598-4409-b036-849e0000263d}, !- Handle
  Medium Office Infil Quarter On Default Schedule, !- Name
  {b352ac37-3822-4e8f-8202-abb3d34e1137}, !- Schedule Type Limits Name
  ,                                       !- Interpolate to Timestep
  6,                                      !- Hour 1
  0,                                      !- Minute 1
  1,                                      !- Value Until Time 1
  22,                                     !- Hour 2
  0,                                      !- Minute 2
  0.25,                                   !- Value Until Time 2
  24,                                     !- Hour 3
  0,                                      !- Minute 3
  1;                                      !- Value Until Time 3

OS:Schedule:Day,
  {e3335091-551b-46c0-a2f2-b15a8739476e}, !- Handle
  Medium Office Infil Quarter On Rule 2 Day Schedule, !- Name
  {b352ac37-3822-4e8f-8202-abb3d34e1137}, !- Schedule Type Limits Name
  ,                                       !- Interpolate to Timestep
  6,                                      !- Hour 1
  0,                                      !- Minute 1
  1,                                      !- Value Until Time 1
  18,                                     !- Hour 2
  0,                                      !- Minute 2
  0.25,                                   !- Value Until Time 2
  24,                                     !- Hour 3
  0,                                      !- Minute 3
  1;                                      !- Value Until Time 3

OS:Schedule:Day,
  {594420bb-0f81-4159-bf56-c55122196e41}, !- Handle
  Medium Office Infil Quarter On Summer Design Day, !- Name
  {b352ac37-3822-4e8f-8202-abb3d34e1137}, !- Schedule Type Limits Name
  ,                                       !- Interpolate to Timestep
  6,                                      !- Hour 1
  0,                                      !- Minute 1
  1,                                      !- Value Until Time 1
  22,                                     !- Hour 2
  0,                                      !- Minute 2
  0.25,                                   !- Value Until Time 2
  24,                                     !- Hour 3
  0,                                      !- Minute 3
  1;                                      !- Value Until Time 3

OS:Schedule:Day,
  {bda63616-fced-4a10-bd46-d9b4d5365b8e}, !- Handle
  Medium Office Infil Quarter On Winter Design Day, !- Name
  {b352ac37-3822-4e8f-8202-abb3d34e1137}, !- Schedule Type Limits Name
  ,                                       !- Interpolate to Timestep
  6,                                      !- Hour 1
  0,                                      !- Minute 1
  1,                                      !- Value Until Time 1
  18,                                     !- Hour 2
  0,                                      !- Minute 2
  0.25,                                   !- Value Until Time 2
  24,                                     !- Hour 3
  0,                                      !- Minute 3
  1;                                      !- Value Until Time 3

OS:YearDescription,
  {3fe7fb7b-0f40-4f6d-be8d-7ea54c770796}; !- Handle

OS:Schedule:Week,
  {3a225417-b41f-403b-b307-8050e999deed}, !- Handle
  Schedule:Week:Daily {20898e88-71dc-48a1-8bf4-30a1d78b98f6}, !- Name
  ,                                       !- Schedule Rendering Name
  {d4cbb82d-d0cb-43e8-a21a-12a92e298c56}, !- Sunday Schedule:Day Name
  {94bcea93-4598-4409-b036-849e0000263d}, !- Monday Schedule:Day Name
  {94bcea93-4598-4409-b036-849e0000263d}, !- Tuesday Schedule:Day Name
  {94bcea93-4598-4409-b036-849e0000263d}, !- Wednesday Schedule:Day Name
  {94bcea93-4598-4409-b036-849e0000263d}, !- Thursday Schedule:Day Name
  {94bcea93-4598-4409-b036-849e0000263d}, !- Friday Schedule:Day Name
  {e3335091-551b-46c0-a2f2-b15a8739476e}, !- Saturday Schedule:Day Name
  {94bcea93-4598-4409-b036-849e0000263d}, !- Holiday Schedule:Day Name
  {594420bb-0f81-4159-bf56-c55122196e41}, !- SummerDesignDay Schedule:Day Name
  {bda63616-fced-4a10-bd46-d9b4d5365b8e}, !- WinterDesignDay Schedule:Day Name
  {94bcea93-4598-4409-b036-849e0000263d}, !- CustomDay1 Schedule:Day Name
  {94bcea93-4598-4409-b036-849e0000263d}; !- CustomDay2 Schedule:Day Name

OS:Schedule:Day,
  {d4cbb82d-d0cb-43e8-a21a-12a92e298c56}, !- Handle
  Medium Office Infil Quarter On Rule 1 Day Schedule, !- Name
  {b352ac37-3822-4e8f-8202-abb3d34e1137}, !- Schedule Type Limits Name
  ,                                       !- Interpolate to Timestep
  24,                                     !- Hour 1
  0,                                      !- Minute 1
  1;                                      !- Value Until Time 1

OS:Schedule:Year,
  {814023e2-a3ec-4ac4-b595-6c07f08330d9}, !- Handle
  Office Bldg Light,                      !- Name
  {b352ac37-3822-4e8f-8202-abb3d34e1137}, !- Schedule Type Limits Name
  1,                                      !- Month 1
  3,                                      !- Day 1
  {5f784396-82cf-4ed1-b7f1-cffdc557d03f}, !- Week Schedule Until Date 1
  12,                                     !- Month 2
  31,                                     !- Day 2
  {dc3599b4-b00a-4a7c-bc60-2c21bd382dc8}; !- Week Schedule Until Date 2

OS:Schedule:Week,
  {5f784396-82cf-4ed1-b7f1-cffdc557d03f}, !- Handle
  Schedule:Week:Daily {77782ce5-1a70-49a7-b72d-db0988271982}, !- Name
  ,                                       !- Schedule Rendering Name
  {ed207816-1566-43d5-89a7-38fa7d8f0e60}, !- Sunday Schedule:Day Name
  {ed207816-1566-43d5-89a7-38fa7d8f0e60}, !- Monday Schedule:Day Name
  {ed207816-1566-43d5-89a7-38fa7d8f0e60}, !- Tuesday Schedule:Day Name
  {ed207816-1566-43d5-89a7-38fa7d8f0e60}, !- Wednesday Schedule:Day Name
  {ed207816-1566-43d5-89a7-38fa7d8f0e60}, !- Thursday Schedule:Day Name
  {ed207816-1566-43d5-89a7-38fa7d8f0e60}, !- Friday Schedule:Day Name
  {93afbfc6-568a-478c-936f-694882ca05d4}, !- Saturday Schedule:Day Name
  {ed207816-1566-43d5-89a7-38fa7d8f0e60}, !- Holiday Schedule:Day Name
  {a35ffe1f-f9bd-4731-9283-a847653bc813}, !- SummerDesignDay Schedule:Day Name
  {a0745d4c-80c1-4084-b54d-5423663bc38a}, !- WinterDesignDay Schedule:Day Name
  {ed207816-1566-43d5-89a7-38fa7d8f0e60}, !- CustomDay1 Schedule:Day Name
  {ed207816-1566-43d5-89a7-38fa7d8f0e60}; !- CustomDay2 Schedule:Day Name

OS:Schedule:Day,
  {ed207816-1566-43d5-89a7-38fa7d8f0e60}, !- Handle
  Office Bldg Light Default Schedule,     !- Name
  {b352ac37-3822-4e8f-8202-abb3d34e1137}, !- Schedule Type Limits Name
  ,                                       !- Interpolate to Timestep
  5,                                      !- Hour 1
  0,                                      !- Minute 1
  0.05,                                   !- Value Until Time 1
  7,                                      !- Hour 2
  0,                                      !- Minute 2
  0.1,                                    !- Value Until Time 2
  8,                                      !- Hour 3
  0,                                      !- Minute 3
  0.3,                                    !- Value Until Time 3
  17,                                     !- Hour 4
  0,                                      !- Minute 4
  0.9,                                    !- Value Until Time 4
  18,                                     !- Hour 5
  0,                                      !- Minute 5
  0.7,                                    !- Value Until Time 5
  20,                                     !- Hour 6
  0,                                      !- Minute 6
  0.5,                                    !- Value Until Time 6
  22,                                     !- Hour 7
  0,                                      !- Minute 7
  0.3,                                    !- Value Until Time 7
  23,                                     !- Hour 8
  0,                                      !- Minute 8
  0.1,                                    !- Value Until Time 8
  24,                                     !- Hour 9
  0,                                      !- Minute 9
  0.05;                                   !- Value Until Time 9

OS:Schedule:Day,
  {93afbfc6-568a-478c-936f-694882ca05d4}, !- Handle
  Office Bldg Light Rule 2 Day Schedule,  !- Name
  {b352ac37-3822-4e8f-8202-abb3d34e1137}, !- Schedule Type Limits Name
  ,                                       !- Interpolate to Timestep
  6,                                      !- Hour 1
  0,                                      !- Minute 1
  0.05,                                   !- Value Until Time 1
  8,                                      !- Hour 2
  0,                                      !- Minute 2
  0.1,                                    !- Value Until Time 2
  14,                                     !- Hour 3
  0,                                      !- Minute 3
  0.5,                                    !- Value Until Time 3
  17,                                     !- Hour 4
  0,                                      !- Minute 4
  0.15,                                   !- Value Until Time 4
  24,                                     !- Hour 5
  0,                                      !- Minute 5
  0.05;                                   !- Value Until Time 5

OS:Schedule:Day,
  {a35ffe1f-f9bd-4731-9283-a847653bc813}, !- Handle
  Office Bldg Light Summer Design Day,    !- Name
  {b352ac37-3822-4e8f-8202-abb3d34e1137}, !- Schedule Type Limits Name
  ,                                       !- Interpolate to Timestep
  24,                                     !- Hour 1
  0,                                      !- Minute 1
  1;                                      !- Value Until Time 1

OS:Schedule:Day,
  {a0745d4c-80c1-4084-b54d-5423663bc38a}, !- Handle
  Office Bldg Light Winter Design Day,    !- Name
  {b352ac37-3822-4e8f-8202-abb3d34e1137}, !- Schedule Type Limits Name
  ,                                       !- Interpolate to Timestep
  24,                                     !- Hour 1
  0,                                      !- Minute 1
  0;                                      !- Value Until Time 1

OS:Schedule:Week,
  {dc3599b4-b00a-4a7c-bc60-2c21bd382dc8}, !- Handle
  Schedule:Week:Daily {1558189b-593c-4115-b061-465417357844}, !- Name
  ,                                       !- Schedule Rendering Name
  {7c826cb1-d8cd-462a-bf6b-129449968b06}, !- Sunday Schedule:Day Name
  {ed207816-1566-43d5-89a7-38fa7d8f0e60}, !- Monday Schedule:Day Name
  {ed207816-1566-43d5-89a7-38fa7d8f0e60}, !- Tuesday Schedule:Day Name
  {ed207816-1566-43d5-89a7-38fa7d8f0e60}, !- Wednesday Schedule:Day Name
  {ed207816-1566-43d5-89a7-38fa7d8f0e60}, !- Thursday Schedule:Day Name
  {ed207816-1566-43d5-89a7-38fa7d8f0e60}, !- Friday Schedule:Day Name
  {93afbfc6-568a-478c-936f-694882ca05d4}, !- Saturday Schedule:Day Name
  {ed207816-1566-43d5-89a7-38fa7d8f0e60}, !- Holiday Schedule:Day Name
  {a35ffe1f-f9bd-4731-9283-a847653bc813}, !- SummerDesignDay Schedule:Day Name
  {a0745d4c-80c1-4084-b54d-5423663bc38a}, !- WinterDesignDay Schedule:Day Name
  {ed207816-1566-43d5-89a7-38fa7d8f0e60}, !- CustomDay1 Schedule:Day Name
  {ed207816-1566-43d5-89a7-38fa7d8f0e60}; !- CustomDay2 Schedule:Day Name

OS:Schedule:Day,
  {7c826cb1-d8cd-462a-bf6b-129449968b06}, !- Handle
  Office Bldg Light Rule 1 Day Schedule,  !- Name
  {b352ac37-3822-4e8f-8202-abb3d34e1137}, !- Schedule Type Limits Name
  ,                                       !- Interpolate to Timestep
  24,                                     !- Hour 1
  0,                                      !- Minute 1
  0.05;                                   !- Value Until Time 1

OS:Schedule:Year,