
OS:Version,
  {788c0121-dcb0-426e-82c3-9aec448a0b8d}, !- Handle
  2.1.0;                                  !- Version Identifier

OS:RunPeriod,
  {406c7361-ab10-444e-84e8-3d49626f0783}, !- Handle
  Run Period 1,                           !- Name
  1,                                      !- Begin Month
  1,                                      !- Begin Day of Month
  12,                                     !- End Month
  31,                                     !- End Day of Month
  ,                                       !- Use Weather File Holidays and Special Days
  ,                                       !- Use Weather File Daylight Saving Period
  ,                                       !- Apply Weekend Holiday Rule
  ,                                       !- Use Weather File Rain Indicators
  ,                                       !- Use Weather File Snow Indicators
  ;                                       !- Number of Times Runperiod to be Repeated

OS:Timestep,
  {2bfd7d54-64b6-4038-a010-4d72e91277d5}, !- Handle
  6;                                      !- Number of Timesteps per Hour

OS:Building,
  {4dc19353-08f9-4d17-bacf-154c03edf99e}, !- Handle
  Building 1,                             !- Name
  ,                                       !- Building Sector Type
  90,                                     !- North Axis {deg}
  ,                                       !- Nominal Floor to Floor Height {m}
  ,                                       !- Space Type Name
  ,                                       !- Default Construction Set Name
  ;                                       !- Default Schedule Set Name

OS:Site,
  {2af7bd24-366f-448a-bcdd-394c051124c3}, !- Handle
  Chicago Ohare Intl Ap	USA,              !- Name
  41.98,                                  !- Latitude {deg}
  -87.92,                                 !- Longitude {deg}
  -6,                                     !- Time Zone {hr}
  201,                                    !- Elevation {m}
  City;                                   !- Terrain

OS:SimulationControl,
  {5ed52ed6-2799-411d-b416-758e494de6c3}, !- Handle
  Yes,                                    !- Do Zone Sizing Calculation
  Yes,                                    !- Do System Sizing Calculation
  Yes,                                    !- Do Plant Sizing Calculation
  No,                                     !- Run Simulation for Sizing Periods
  Yes,                                    !- Run Simulation for Weather File Run Periods
  ,                                       !- Loads Convergence Tolerance Value
  ,                                       !- Temperature Convergence Tolerance Value {deltaC}
  FullInteriorAndExteriorWithReflections; !- Solar Distribution

OS:ShadowCalculation,
  {7fa39972-0696-4b72-ac4b-0a0e5d2e79b9}, !- Handle
  30,                                     !- Calculation Frequency
  3000;                                   !- Maximum Figures in Shadow Overlap Calculations

OS:Sizing:Parameters,
  {4b57b6f0-64d1-4c13-bbdb-0946245fa0f6}, !- Handle
  1.25,                                   !- Heating Sizing Factor
  1.15;                                   !- Cooling Sizing Factor

OS:SizingPeriod:DesignDay,
  {c14d3f99-3cb0-4d48-a046-1ec275711ea4}, !- Handle
  Ann Htg 99.6% Condns DB,                !- Name
  -20,                                    !- Maximum Dry-Bulb Temperature {C}
  0,                                      !- Daily Dry-Bulb Temperature Range {deltaC}
  -20,                                    !- Humidity Indicating Conditions at Maximum Dry-Bulb
  99188,                                  !- Barometric Pressure {Pa}
  5.2,                                    !- Wind Speed {m/s}
  241,                                    !- Wind Direction {deg}
  0,                                      !- Sky Clearness
  0,                                      !- Rain Indicator
  0,                                      !- Snow Indicator
  21,                                     !- Day of Month
  1,                                      !- Month
  WinterDesignDay,                        !- Day Type
  0,                                      !- Daylight Saving Time Indicator
  Wetbulb,                                !- Humidity Indicating Type
  ,                                       !- Humidity Indicating Day Schedule Name
  DefaultMultipliers,                     !- Dry-Bulb Temperature Range Modifier Type
  ,                                       !- Dry-Bulb Temperature Range Modifier Schedule Name
  ASHRAEClearSky;                         !- Solar Model Indicator

OS:SizingPeriod:DesignDay,
  {21ebe47c-7289-468e-a9aa-4cf2019a1dd7}, !- Handle
  Ann Hum_n 99.6% Condns DP=>MCDB,        !- Name
  -17.8,                                  !- Maximum Dry-Bulb Temperature {C}
  0,                                      !- Daily Dry-Bulb Temperature Range {deltaC}
  -26.7,                                  !- Humidity Indicating Conditions at Maximum Dry-Bulb
  99188,                                  !- Barometric Pressure {Pa}
  5.2,                                    !- Wind Speed {m/s}
  241,                                    !- Wind Direction {deg}
  0,                                      !- Sky Clearness
  0,                                      !- Rain Indicator
  0,                                      !- Snow Indicator
  21,                                     !- Day of Month
  1,                                      !- Month
  WinterDesignDay,                        !- Day Type
  0,                                      !- Daylight Saving Time Indicator
  Dewpoint,                               !- Humidity Indicating Type
  ,                                       !- Humidity Indicating Day Schedule Name
  DefaultMultipliers,                     !- Dry-Bulb Temperature Range Modifier Type
  ,                                       !- Dry-Bulb Temperature Range Modifier Schedule Name
  ASHRAEClearSky;                         !- Solar Model Indicator

OS:SizingPeriod:DesignDay,
  {7f2bf19e-a63f-4710-84fb-5d0ee7961dba}, !- Handle
  Ann Htg Wind 99.6% Condns WS=>MCDB,     !- Name
  -2.2,                                   !- Maximum Dry-Bulb Temperature {C}
  0,                                      !- Daily Dry-Bulb Temperature Range {deltaC}
  -2.2,                                   !- Humidity Indicating Conditions at Maximum Dry-Bulb
  99188,                                  !- Barometric Pressure {Pa}
  12.4,                                   !- Wind Speed {m/s}
  241,                                    !- Wind Direction {deg}
  0,                                      !- Sky Clearness
  0,                                      !- Rain Indicator
  0,                                      !- Snow Indicator
  21,                                     !- Day of Month
  1,                                      !- Month
  WinterDesignDay,                        !- Day Type
  0,                                      !- Daylight Saving Time Indicator
  Wetbulb,                                !- Humidity Indicating Type
  ,                                       !- Humidity Indicating Day Schedule Name
  DefaultMultipliers,                     !- Dry-Bulb Temperature Range Modifier Type
  ,                                       !- Dry-Bulb Temperature Range Modifier Schedule Name
  ASHRAEClearSky;                         !- Solar Model Indicator

OS:SizingPeriod:DesignDay,
  {65893183-5d5e-467d-9fa7-39ad528dca85}, !- Handle
  Ann Clg .4% Condns DB=>MWB,             !- Name
  32.2,                                   !- Maximum Dry-Bulb Temperature {C}
  10.6,                                   !- Daily Dry-Bulb Temperature Range {deltaC}
  25.441,                                 !- Humidity Indicating Conditions at Maximum Dry-Bulb
  99188,                                  !- Barometric Pressure {Pa}
  6.2,                                    !- Wind Speed {m/s}
  191,                                    !- Wind Direction {deg}
  1.2,                                    !- Sky Clearness
  0,                                      !- Rain Indicator
  0,                                      !- Snow Indicator
  21,                                     !- Day of Month
  7,                                      !- Month
  SummerDesignDay,                        !- Day Type
  0,                                      !- Daylight Saving Time Indicator
  Wetbulb,                                !- Humidity Indicating Type
  ,                                       !- Humidity Indicating Day Schedule Name
  DefaultMultipliers,                     !- Dry-Bulb Temperature Range Modifier Type
  ,                                       !- Dry-Bulb Temperature Range Modifier Schedule Name
  ASHRAEClearSky;                         !- Solar Model Indicator

OS:SizingPeriod:DesignDay,
  {1844700a-89f3-41c7-8867-849237fb47e8}, !- Handle
  Ann Clg .4% Condns WB=>MDB,             !- Name
  31.7,                                   !- Maximum Dry-Bulb Temperature {C}
  10.6,                                   !- Daily Dry-Bulb Temperature Range {deltaC}
  25.54,                                  !- Humidity Indicating Conditions at Maximum Dry-Bulb
  99188,                                  !- Barometric Pressure {Pa}
  6.2,                                    !- Wind Speed {m/s}
  191,                                    !- Wind Direction {deg}
  1.2,                                    !- Sky Clearness
  0,                                      !- Rain Indicator
  0,                                      !- Snow Indicator
  21,                                     !- Day of Month
  7,                                      !- Month
  SummerDesignDay,                        !- Day Type
  0,                                      !- Daylight Saving Time Indicator
  Wetbulb,                                !- Humidity Indicating Type
  ,                                       !- Humidity Indicating Day Schedule Name
  DefaultMultipliers,                     !- Dry-Bulb Temperature Range Modifier Type
  ,                                       !- Dry-Bulb Temperature Range Modifier Schedule Name
  ASHRAEClearSky;                         !- Solar Model Indicator

OS:SizingPeriod:DesignDay,
  {a8762b0d-1a81-442a-936f-c4ade1430e7f}, !- Handle
  Ann Clg .4% Condns DP=>MDB,             !- Name
  32.8,                                   !- Maximum Dry-Bulb Temperature {C}
  10.6,                                   !- Daily Dry-Bulb Temperature Range {deltaC}
  23.3,                                   !- Humidity Indicating Conditions at Maximum Dry-Bulb
  99188,                                  !- Barometric Pressure {Pa}
  6.2,                                    !- Wind Speed {m/s}
  191,                                    !- Wind Direction {deg}
  1.2,                                    !- Sky Clearness
  0,                                      !- Rain Indicator
  0,                                      !- Snow Indicator
  21,                                     !- Day of Month
  7,                                      !- Month
  SummerDesignDay,                        !- Day Type
  0,                                      !- Daylight Saving Time Indicator
  Dewpoint,                               !- Humidity Indicating Type
  ,                                       !- Humidity Indicating Day Schedule Name
  DefaultMultipliers,                     !- Dry-Bulb Temperature Range Modifier Type
  ,                                       !- Dry-Bulb Temperature Range Modifier Schedule Name
  ASHRAEClearSky;                         !- Solar Model Indicator

OS:SizingPeriod:DesignDay,
  {adb9418f-1ccc-46f8-a6ac-717a60eee209}, !- Handle
  Ann Clg .4% Condns Enth=>MDB,           !- Name
  31.7,                                   !- Maximum Dry-Bulb Temperature {C}
  10.6,                                   !- Daily Dry-Bulb Temperature Range {deltaC}
  78779,                                  !- Humidity Indicating Conditions at Maximum Dry-Bulb
  99188,                                  !- Barometric Pressure {Pa}
  6.2,                                    !- Wind Speed {m/s}
  191,                                    !- Wind Direction {deg}
  1.2,                                    !- Sky Clearness
  0,                                      !- Rain Indicator
  0,                                      !- Snow Indicator
  21,                                     !- Day of Month
  7,                                      !- Month
  SummerDesignDay,                        !- Day Type
  0,                                      !- Daylight Saving Time Indicator
  Enthalpy,                               !- Humidity Indicating Type
  ,                                       !- Humidity Indicating Day Schedule Name
  DefaultMultipliers,                     !- Dry-Bulb Temperature Range Modifier Type
  ,                                       !- Dry-Bulb Temperature Range Modifier Schedule Name
  ASHRAEClearSky;                         !- Solar Model Indicator

OS:BuildingStory,
  {74389efb-767a-449e-bdc5-d1f89fe90e4e}, !- Handle
  Building Story 1,                       !- Name
  0,                                      !- Nominal Z Coordinate {m}
  ,                                       !- Nominal Floor to Floor Height {m}
  ,                                       !- Default Construction Set Name
  ,                                       !- Default Schedule Set Name
  ;                                       !- Group Rendering Name

OS:BuildingStory,
  {81233453-0b95-481c-a00e-687fe49f8a53}, !- Handle
  Building Story 2,                       !- Name
  0,                                      !- Nominal Z Coordinate {m}
  ,                                       !- Nominal Floor to Floor Height {m}
  ,                                       !- Default Construction Set Name
  ,                                       !- Default Schedule Set Name
  ;                                       !- Group Rendering Name

OS:Space,
  {a6024820-07d4-449a-aba2-0780a0729a3b}, !- Handle
  zone_0_space,                           !- Name
  {b7a47997-2d07-4390-bc16-e7fce48d9e83}, !- Space Type Name
  ,                                       !- Default Construction Set Name
  {7155a244-5099-46f2-99e2-43061f6b5c08}, !- Default Schedule Set Name
  ,                                       !- Direction of Relative North {deg}
  ,                                       !- X Origin {m}
  ,                                       !- Y Origin {m}
  ,                                       !- Z Origin {m}
  {81233453-0b95-481c-a00e-687fe49f8a53}, !- Building Story Name
  {3d258078-45d1-44b1-8ab1-db2fd089f6fd}, !- Thermal Zone Name
  ,                                       !- Part of Total Floor Area
  {5c21a268-2b34-422b-a2b5-79aaceddb8b1}; !- Design Specification Outdoor Air Object Name

OS:SpaceType,
  {b7a47997-2d07-4390-bc16-e7fce48d9e83}, !- Handle
  Office:Corridor;                        !- Name

OS:DefaultScheduleSet,
  {7155a244-5099-46f2-99e2-43061f6b5c08}, !- Handle
  zone_0_DefaultScheduleSet,              !- Name
  {9854cd20-0672-4a84-b93d-03c2310e4e24}, !- Hours of Operation Schedule Name
  ,                                       !- Number of People Schedule Name
  {01b1e996-81f6-4139-bc10-5caa80bbd009}, !- People Activity Level Schedule Name
  {3d58a057-de59-4448-bcb0-fa974c849af9}, !- Lighting Schedule Name
  {2d551de6-daa5-48f6-a493-443be472ac74}, !- Electric Equipment Schedule Name
  ,                                       !- Gas Equipment Schedule Name
  ,                                       !- Hot Water Equipment Schedule Name
  {cc50242a-df26-4c31-a1d2-d3b1d5e44a9d}, !- Infiltration Schedule Name
  ,                                       !- Steam Equipment Schedule Name
  ;                                       !- Other Equipment Schedule Name

OS:ScheduleTypeLimits,
  {301111dd-9a8e-438b-b29f-e35df4d7c2cb}, !- Handle
  Schedule Type Limits 1,                 !- Name
  0,                                      !- Lower Limit Value
  1,                                      !- Upper Limit Value
  CONTINUOUS;                             !- Numeric Type

OS:Schedule:Year,
  {cc50242a-df26-4c31-a1d2-d3b1d5e44a9d}, !- Handle
  Medium Office Infil Quarter On,         !- Name
  {301111dd-9a8e-438b-b29f-e35df4d7c2cb}, !- Schedule Type Limits Name
  1,                                      !- Month 1
  3,                                      !- Day 1
  {191f5212-9b44-4338-9da3-9915b88ecd10}, !- Week Schedule Until Date 1
  12,                                     !- Month 2
  31,                                     !- Day 2
  {6e74965d-daa7-40ff-b1ad-a3e1e6fb7780}; !- Week Schedule Until Date 2

OS:Schedule:Week,
  {191f5212-9b44-4338-9da3-9915b88ecd10}, !- Handle
  Schedule:Week:Daily {10ec3e5a-5294-46cc-8ada-f12e209007b8}, !- Name
  ,                                       !- Schedule Rendering Name
  {3da3707a-6ca7-4874-b87e-03ce0d6d60cc}, !- Sunday Schedule:Day Name
  {3da3707a-6ca7-4874-b87e-03ce0d6d60cc}, !- Monday Schedule:Day Name
  {3da3707a-6ca7-4874-b87e-03ce0d6d60cc}, !- Tuesday Schedule:Day Name
  {3da3707a-6ca7-4874-b87e-03ce0d6d60cc}, !- Wednesday Schedule:Day Name
  {3da3707a-6ca7-4874-b87e-03ce0d6d60cc}, !- Thursday Schedule:Day Name
  {3da3707a-6ca7-4874-b87e-03ce0d6d60cc}, !- Friday Schedule:Day Name
  {9f42cf20-eab4-43fc-918e-efbdea6f6095}, !- Saturday Schedule:Day Name
  {3da3707a-6ca7-4874-b87e-03ce0d6d60cc}, !- Holiday Schedule:Day Name
  {fc280bb9-d2a1-4a2a-b126-025a415fba50}, !- SummerDesignDay Schedule:Day Name
  {f32e7b09-8afc-46d4-8c20-32352be2369f}, !- WinterDesignDay Schedule:Day Name
  {3da3707a-6ca7-4874-b87e-03ce0d6d60cc}, !- CustomDay1 Schedule:Day Name
  {3da3707a-6ca7-4874-b87e-03ce0d6d60cc}; !- CustomDay2 Schedule:Day Name

OS:Schedule:Day,
  {3da3707a-6ca7-4874-b87e-03ce0d6d60cc}, !- Handle
  Medium Office Infil Quarter On Default Schedule, !- Name
  {301111dd-9a8e-438b-b29f-e35df4d7c2cb}, !- Schedule Type Limits Name
  ,                                       !- Interpolate to Timestep
  6,                                      !- Hour 1
  0,                                      !- Minute 1
  1,                                      !- Value Until Time 1
  22,                                     !- Hour 2
  0,                                      !- Minute 2
  0.25,                                   !- Value Until Time 2
  24,                                     !- Hour 3
  0,                                      !- Minute 3
  1;                                      !- Value Until Time 3

OS:Schedule:Day,
  {9f42cf20-eab4-43fc-918e-efbdea6f6095}, !- Handle
  Medium Office Infil Quarter On Rule 2 Day Schedule, !- Name
  {301111dd-9a8e-438b-b29f-e35df4d7c2cb}, !- Schedule Type Limits Name
  ,                                       !- Interpolate to Timestep
  6,                                      !- Hour 1
  0,                                      !- Minute 1
  1,                                      !- Value Until Time 1
  18,                                     !- Hour 2
  0,                                      !- Minute 2
  0.25,                                   !- Value Until Time 2
  24,                                     !- Hour 3
  0,                                      !- Minute 3
  1;                                      !- Value Until Time 3

OS:Schedule:Day,
  {fc280bb9-d2a1-4a2a-b126-025a415fba50}, !- Handle
  Medium Office Infil Quarter On Summer Design Day, !- Name
  {301111dd-9a8e-438b-b29f-e35df4d7c2cb}, !- Schedule Type Limits Name
  ,                                       !- Interpolate to Timestep
  6,                                      !- Hour 1
  0,                                      !- Minute 1
  1,                                      !- Value Until Time 1
  22,                                     !- Hour 2
  0,                                      !- Minute 2
  0.25,                                   !- Value Until Time 2
  24,                                     !- Hour 3
  0,                                      !- Minute 3
  1;                                      !- Value Until Time 3

OS:Schedule:Day,
  {f32e7b09-8afc-46d4-8c20-32352be2369f}, !- Handle
  Medium Office Infil Quarter On Winter Design Day, !- Name
  {301111dd-9a8e-438b-b29f-e35df4d7c2cb}, !- Schedule Type Limits Name
  ,                                       !- Interpolate to Timestep
  6,                                      !- Hour 1
  0,                                      !- Minute 1
  1,                                      !- Value Until Time 1
  18,                                     !- Hour 2
  0,                                      !- Minute 2
  0.25,                                   !- Value Until Time 2
  24,                                     !- Hour 3
  0,                                      !- Minute 3
  1;                                      !- Value Until Time 3

OS:YearDescription,
  {e299b267-878e-4bd1-91ce-7ab53f05d875}; !- Handle

OS:Schedule:Week,
  {6e74965d-daa7-40ff-b1ad-a3e1e6fb7780}, !- Handle
  Schedule:Week:Daily {20898e88-71dc-48a1-8bf4-30a1d78b98f6}, !- Name
  ,                                       !- Schedule Rendering Name
  {f28474e3-4bc5-4bb2-8843-39c0f4f1ff0f}, !- Sunday Schedule:Day Name
  {3da3707a-6ca7-4874-b87e-03ce0d6d60cc}, !- Monday Schedule:Day Name
  {3da3707a-6ca7-4874-b87e-03ce0d6d60cc}, !- Tuesday Schedule:Day Name
  {3da3707a-6ca7-4874-b87e-03ce0d6d60cc}, !- Wednesday Schedule:Day Name
  {3da3707a-6ca7-4874-b87e-03ce0d6d60cc}, !- Thursday Schedule:Day Name
  {3da3707a-6ca7-4874-b87e-03ce0d6d60cc}, !- Friday Schedule:Day Name
  {9f42cf20-eab4-43fc-918e-efbdea6f6095}, !- Saturday Schedule:Day Name
  {3da3707a-6ca7-4874-b87e-03ce0d6d60cc}, !- Holiday Schedule:Day Name
  {fc280bb9-d2a1-4a2a-b126-025a415fba50}, !- SummerDesignDay Schedule:Day Name
  {f32e7b09-8afc-46d4-8c20-32352be2369f}, !- WinterDesignDay Schedule:Day Name
  {3da3707a-6ca7-4874-b87e-03ce0d6d60cc}, !- CustomDay1 Schedule:Day Name
  {3da3707a-6ca7-4874-b87e-03ce0d6d60cc}; !- CustomDay2 Schedule:Day Name

OS:Schedule:Day,
  {f28474e3-4bc5-4bb2-8843-39c0f4f1ff0f}, !- Handle
  Medium Office Infil Quarter On Rule 1 Day Schedule, !- Name
  {301111dd-9a8e-438b-b29f-e35df4d7c2cb}, !- Schedule Type Limits Name
  ,                                       !- Interpolate to Timestep
  24,                                     !- Hour 1
  0,                                      !- Minute 1
  1;                                      !- Value Until Time 1

OS:Schedule:Year,
  {3d58a057-de59-4448-bcb0-fa974c849af9}, !- Handle
  Office Bldg Light,                      !- Name
  {301111dd-9a8e-438b-b29f-e35df4d7c2cb}, !- Schedule Type Limits Name
  1,                                      !- Month 1
  3,                                      !- Day 1
  {54fb9e63-94b7-425a-b823-9eb0ee041be8}, !- Week Schedule Until Date 1
  12,                                     !- Month 2
  31,                                     !- Day 2
  {d3bef41f-2a32-4070-bf61-2a280765dedd}; !- Week Schedule Until Date 2

OS:Schedule:Week,
  {54fb9e63-94b7-425a-b823-9eb0ee041be8}, !- Handle
  Schedule:Week:Daily {77782ce5-1a70-49a7-b72d-db0988271982}, !- Name
  ,                                       !- Schedule Rendering Name
  {5f339717-75a4-471a-899a-124a6c97c955}, !- Sunday Schedule:Day Name
  {5f339717-75a4-471a-899a-124a6c97c955}, !- Monday Schedule:Day Name
  {5f339717-75a4-471a-899a-124a6c97c955}, !- Tuesday Schedule:Day Name
  {5f339717-75a4-471a-899a-124a6c97c955}, !- Wednesday Schedule:Day Name
  {5f339717-75a4-471a-899a-124a6c97c955}, !- Thursday Schedule:Day Name
  {5f339717-75a4-471a-899a-124a6c97c955}, !- Friday Schedule:Day Name
  {ea8ff569-1970-43b6-86e0-c7936e74d0aa}, !- Saturday Schedule:Day Name
  {5f339717-75a4-471a-899a-124a6c97c955}, !- Holiday Schedule:Day Name
  {06778e4b-1139-4d66-ab11-b3d769828700}, !- SummerDesignDay Schedule:Day Name
  {042bf5ae-115b-42bc-ad6e-8f5b784f023f}, !- WinterDesignDay Schedule:Day Name
  {5f339717-75a4-471a-899a-124a6c97c955}, !- CustomDay1 Schedule:Day Name
  {5f339717-75a4-471a-899a-124a6c97c955}; !- CustomDay2 Schedule:Day Name

OS:Schedule:Day,
  {5f339717-75a4-471a-899a-124a6c97c955}, !- Handle
  Office Bldg Light Default Schedule,     !- Name
  {301111dd-9a8e-438b-b29f-e35df4d7c2cb}, !- Schedule Type Limits Name
  ,                                       !- Interpolate to Timestep
  5,                                      !- Hour 1
  0,                                      !- Minute 1
  0.05,                                   !- Value Until Time 1
  7,                                      !- Hour 2
  0,                                      !- Minute 2
  0.1,                                    !- Value Until Time 2
  8,                                      !- Hour 3
  0,                                      !- Minute 3
  0.3,                                    !- Value Until Time 3
  17,                                     !- Hour 4
  0,                                      !- Minute 4
  0.9,                                    !- Value Until Time 4
  18,                                     !- Hour 5
  0,                                      !- Minute 5
  0.7,                                    !- Value Until Time 5
  20,                                     !- Hour 6
  0,                                      !- Minute 6
  0.5,                                    !- Value Until Time 6
  22,                                     !- Hour 7
  0,                                      !- Minute 7
  0.3,                                    !- Value Until Time 7
  23,                                     !- Hour 8
  0,                                      !- Minute 8
  0.1,                                    !- Value Until Time 8
  24,                                     !- Hour 9
  0,                                      !- Minute 9
  0.05;                                   !- Value Until Time 9

OS:Schedule:Day,
  {ea8ff569-1970-43b6-86e0-c7936e74d0aa}, !- Handle
  Office Bldg Light Rule 2 Day Schedule,  !- Name
  {301111dd-9a8e-438b-b29f-e35df4d7c2cb}, !- Schedule Type Limits Name
  ,                                       !- Interpolate to Timestep
  6,                                      !- Hour 1
  0,                                      !- Minute 1
  0.05,                                   !- Value Until Time 1
  8,                                      !- Hour 2
  0,                                      !- Minute 2
  0.1,                                    !- Value Until Time 2
  14,                                     !- Hour 3
  0,                                      !- Minute 3
  0.5,                                    !- Value Until Time 3
  17,                                     !- Hour 4
  0,                                      !- Minute 4
  0.15,                                   !- Value Until Time 4
  24,                                     !- Hour 5
  0,                                      !- Minute 5
  0.05;                                   !- Value Until Time 5

OS:Schedule:Day,
  {06778e4b-1139-4d66-ab11-b3d769828700}, !- Handle
  Office Bldg Light Summer Design Day,    !- Name
  {301111dd-9a8e-438b-b29f-e35df4d7c2cb}, !- Schedule Type Limits Name
  ,                                       !- Interpolate to Timestep
  24,                                     !- Hour 1
  0,                                      !- Minute 1
  1;                                      !- Value Until Time 1

OS:Schedule:Day,
  {042bf5ae-115b-42bc-ad6e-8f5b784f023f}, !- Handle
  Office Bldg Light Winter Design Day,    !- Name
  {301111dd-9a8e-438b-b29f-e35df4d7c2cb}, !- Schedule Type Limits Name
  ,                                       !- Interpolate to Timestep
  24,                                     !- Hour 1
  0,                                      !- Minute 1
  0;                                      !- Value Until Time 1

OS:Schedule:Week,
  {d3bef41f-2a32-4070-bf61-2a280765dedd}, !- Handle
  Schedule:Week:Daily {1558189b-593c-4115-b061-465417357844}, !- Name
  ,                                       !- Schedule Rendering Name
  {c8f9f440-2e42-4d8e-971e-91fe81e13715}, !- Sunday Schedule:Day Name
  {5f339717-75a4-471a-899a-124a6c97c955}, !- Monday Schedule:Day Name
  {5f339717-75a4-471a-899a-124a6c97c955}, !- Tuesday Schedule:Day Name
  {5f339717-75a4-471a-899a-124a6c97c955}, !- Wednesday Schedule:Day Name
  {5f339717-75a4-471a-899a-124a6c97c955}, !- Thursday Schedule:Day Name
  {5f339717-75a4-471a-899a-124a6c97c955}, !- Friday Schedule:Day Name
  {ea8ff569-1970-43b6-86e0-c7936e74d0aa}, !- Saturday Schedule:Day Name
  {5f339717-75a4-471a-899a-124a6c97c955}, !- Holiday Schedule:Day Name
  {06778e4b-1139-4d66-ab11-b3d769828700}, !- SummerDesignDay Schedule:Day Name
  {042bf5ae-115b-42bc-ad6e-8f5b784f023f}, !- WinterDesignDay Schedule:Day Name
  {5f339717-75a4-471a-899a-124a6c97c955}, !- CustomDay1 Schedule:Day Name
  {5f339717-75a4-471a-899a-124a6c97c955}; !- CustomDay2 Schedule:Day Name

OS:Schedule:Day,
  {c8f9f440-2e42-4d8e-971e-91fe81e13715}, !- Handle
  Office Bldg Light Rule 1 Day Schedule,  !- Name
  {301111dd-9a8e-438b-b29f-e35df4d7c2cb}, !- Schedule Type Limits Name
  ,                                       !- Interpolate to Timestep
  24,                                     !- Hour 1
  0,                                      !- Minute 1
  0.05;                                   !- Value Until Time 1

OS:Schedule:Year,