
OS:Version,
  {95474fed-d3ce-4d83-a275-352f7222da44}, !- Handle
  2.1.0;                                  !- Version Identifier

OS:RunPeriod,
  {7396bf89-0f42-432a-b354-e7e63ccee819}, !- Handle
  Run Period 1,                           !- Name
  1,                                      !- Begin Month
  1,                                      !- Begin Day of Month
  12,                                     !- End Month
  31,                                     !- End Day of Month
  ,                                       !- Use Weather File Holidays and Special Days
  ,                                       !- Use Weather File Daylight Saving Period
  ,                                       !- Apply Weekend Holiday Rule
  ,                                       !- Use Weather File Rain Indicators
  ,                                       !- Use Weather File Snow Indicators
  ;                                       !- Number of Times Runperiod to be Repeated

OS:Timestep,
  {bb623540-f6b4-4e96-947e-134c8be1ee06}, !- Handle
  6;                                      !- Number of Timesteps per Hour

OS:Building,
  {a1d52a43-bc7a-47e8-83a4-b0b1a2942ff7}, !- Handle
  Building 1,                             !- Name
  ,                                       !- Building Sector Type
  0,                                      !- North Axis {deg}
  ,                                       !- Nominal Floor to Floor Height {m}
  ,                                       !- Space Type Name
  ,                                       !- Default Construction Set Name
  ;                                       !- Default Schedule Set Name

OS:Site,
  {25adfd15-f22b-4b05-b3b8-85795f5fd0dc}, !- Handle
  Chicago Ohare Intl Ap	USA,              !- Name
  41.98,                                  !- Latitude {deg}
  -87.92,                                 !- Longitude {deg}
  -6,                                     !- Time Zone {hr}
  201,                                    !- Elevation {m}
  City;                                   !- Terrain

OS:SimulationControl,
  {91d6cef3-f2e7-4229-ab58-56fb5d852d31}, !- Handle
  Yes,                                    !- Do Zone Sizing Calculation
  Yes,                                    !- Do System Sizing Calculation
  Yes,                                    !- Do Plant Sizing Calculation
  No,                                     !- Run Simulation for Sizing Periods
  Yes,                                    !- Run Simulation for Weather File Run Periods
  ,                                       !- Loads Convergence Tolerance Value
  ,                                       !- Temperature Convergence Tolerance Value {deltaC}
  FullInteriorAndExteriorWithReflections; !- Solar Distribution

OS:ShadowCalculation,
  {79631544-458d-4054-940f-5da9ffcc5935}, !- Handle
  30,                                     !- Calculation Frequency
  3000;                                   !- Maximum Figures in Shadow Overlap Calculations

OS:Sizing:Parameters,
  {d3e439ca-3dda-432c-b2c1-77f4600ae953}, !- Handle
  1.25,                                   !- Heating Sizing Factor
  1.15;                                   !- Cooling Sizing Factor

OS:SizingPeriod:DesignDay,
  {246a45b6-6019-46d4-8ecb-36e9d5d64a19}, !- Handle
  Ann Clg .4% Condns Enth=>MDB,           !- Name
  31.7,                                   !- Maximum Dry-Bulb Temperature {C}
  10.6,                                   !- Daily Dry-Bulb Temperature Range {deltaC}
  78779,                                  !- Humidity Indicating Conditions at Maximum Dry-Bulb
  99188,                                  !- Barometric Pressure {Pa}
  6.2,                                    !- Wind Speed {m/s}
  191,                                    !- Wind Direction {deg}
  1.2,                                    !- Sky Clearness
  0,                                      !- Rain Indicator
  0,                                      !- Snow Indicator
  21,                                     !- Day of Month
  7,                                      !- Month
  SummerDesignDay,                        !- Day Type
  0,                                      !- Daylight Saving Time Indicator
  Enthalpy,                               !- Humidity Indicating Type
  ,                                       !- Humidity Indicating Day Schedule Name
  DefaultMultipliers,                     !- Dry-Bulb Temperature Range Modifier Type
  ,                                       !- Dry-Bulb Temperature Range Modifier Schedule Name
  ASHRAEClearSky;                         !- Solar Model Indicator

OS:SizingPeriod:DesignDay,
  {c3093ba1-2f77-4c65-99f1-9bbaec4195b6}, !- Handle
  Ann Htg Wind 99.6% Condns WS=>MCDB,     !- Name
  -2.2,                                   !- Maximum Dry-Bulb Temperature {C}
  0,                                      !- Daily Dry-Bulb Temperature Range {deltaC}
  -2.2,                                   !- Humidity Indicating Conditions at Maximum Dry-Bulb
  99188,                                  !- Barometric Pressure {Pa}
  12.4,                                   !- Wind Speed {m/s}
  241,                                    !- Wind Direction {deg}
  0,                                      !- Sky Clearness
  0,                                      !- Rain Indicator
  0,                                      !- Snow Indicator
  21,                                     !- Day of Month
  1,                                      !- Month
  WinterDesignDay,                        !- Day Type
  0,                                      !- Daylight Saving Time Indicator
  Wetbulb,                                !- Humidity Indicating Type
  ,                                       !- Humidity Indicating Day Schedule Name
  DefaultMultipliers,                     !- Dry-Bulb Temperature Range Modifier Type
  ,                                       !- Dry-Bulb Temperature Range Modifier Schedule Name
  ASHRAEClearSky;                         !- Solar Model Indicator

OS:SizingPeriod:DesignDay,
  {eac80918-0f8b-4576-9578-f94e8e9cb868}, !- Handle
  Ann Clg .4% Condns DP=>MDB,             !- Name
  32.8,                                   !- Maximum Dry-Bulb Temperature {C}
  10.6,                                   !- Daily Dry-Bulb Temperature Range {deltaC}
  23.3,                                   !- Humidity Indicating Conditions at Maximum Dry-Bulb
  99188,                                  !- Barometric Pressure {Pa}
  6.2,                                    !- Wind Speed {m/s}
  191,                                    !- Wind Direction {deg}
  1.2,                                    !- Sky Clearness
  0,                                      !- Rain Indicator
  0,                                      !- Snow Indicator
  21,                                     !- Day of Month
  7,                                      !- Month
  SummerDesignDay,                        !- Day Type
  0,                                      !- Daylight Saving Time Indicator
  Dewpoint,                               !- Humidity Indicating Type
  ,                                       !- Humidity Indicating Day Schedule Name
  DefaultMultipliers,                     !- Dry-Bulb Temperature Range Modifier Type
  ,                                       !- Dry-Bulb Temperature Range Modifier Schedule Name
  ASHRAEClearSky;                         !- Solar Model Indicator

OS:SizingPeriod:DesignDay,
  {94849bc0-f6f4-4f1e-b42f-94d2297088da}, !- Handle
  Ann Hum_n 99.6% Condns DP=>MCDB,        !- Name
  -17.8,                                  !- Maximum Dry-Bulb Temperature {C}
  0,                                      !- Daily Dry-Bulb Temperature Range {deltaC}
  -26.7,                                  !- Humidity Indicating Conditions at Maximum Dry-Bulb
  99188,                                  !- Barometric Pressure {Pa}
  5.2,                                    !- Wind Speed {m/s}
  241,                                    !- Wind Direction {deg}
  0,                                      !- Sky Clearness
  0,                                      !- Rain Indicator
  0,                                      !- Snow Indicator
  21,                                     !- Day of Month
  1,                                      !- Month
  WinterDesignDay,                        !- Day Type
  0,                                      !- Daylight Saving Time Indicator
  Dewpoint,                               !- Humidity Indicating Type
  ,                                       !- Humidity Indicating Day Schedule Name
  DefaultMultipliers,                     !- Dry-Bulb Temperature Range Modifier Type
  ,                                       !- Dry-Bulb Temperature Range Modifier Schedule Name
  ASHRAEClearSky;                         !- Solar Model Indicator

OS:SizingPeriod:DesignDay,
  {c18dac71-6541-4fc6-849f-912819a5cda6}, !- Handle
  Ann Clg .4% Condns WB=>MDB,             !- Name
  31.7,                                   !- Maximum Dry-Bulb Temperature {C}
  10.6,                                   !- Daily Dry-Bulb Temperature Range {deltaC}
  25.54,                                  !- Humidity Indicating Conditions at Maximum Dry-Bulb
  99188,                                  !- Barometric Pressure {Pa}
  6.2,                                    !- Wind Speed {m/s}
  191,                                    !- Wind Direction {deg}
  1.2,                                    !- Sky Clearness
  0,                                      !- Rain Indicator
  0,                                      !- Snow Indicator
  21,                                     !- Day of Month
  7,                                      !- Month
  SummerDesignDay,                        !- Day Type
  0,                                      !- Daylight Saving Time Indicator
  Wetbulb,                                !- Humidity Indicating Type
  ,                                       !- Humidity Indicating Day Schedule Name
  DefaultMultipliers,                     !- Dry-Bulb Temperature Range Modifier Type
  ,                                       !- Dry-Bulb Temperature Range Modifier Schedule Name
  ASHRAEClearSky;                         !- Solar Model Indicator

OS:SizingPeriod:DesignDay,
  {7ce86c74-690c-4f53-9412-18ae35ca9fc9}, !- Handle
  Ann Clg .4% Condns DB=>MWB,             !- Name
  32.2,                                   !- Maximum Dry-Bulb Temperature {C}
  10.6,                                   !- Daily Dry-Bulb Temperature Range {deltaC}
  25.441,                                 !- Humidity Indicating Conditions at Maximum Dry-Bulb
  99188,                                  !- Barometric Pressure {Pa}
  6.2,                                    !- Wind Speed {m/s}
  191,                                    !- Wind Direction {deg}
  1.2,                                    !- Sky Clearness
  0,                                      !- Rain Indicator
  0,                                      !- Snow Indicator
  21,                                     !- Day of Month
  7,                                      !- Month
  SummerDesignDay,                        !- Day Type
  0,                                      !- Daylight Saving Time Indicator
  Wetbulb,                                !- Humidity Indicating Type
  ,                                       !- Humidity Indicating Day Schedule Name
  DefaultMultipliers,                     !- Dry-Bulb Temperature Range Modifier Type
  ,                                       !- Dry-Bulb Temperature Range Modifier Schedule Name
  ASHRAEClearSky;                         !- Solar Model Indicator

OS:SizingPeriod:DesignDay,
  {533f5677-8015-4562-8985-2e337260d8ec}, !- Handle
  Ann Htg 99.6% Condns DB,                !- Name
  -20,                                    !- Maximum Dry-Bulb Temperature {C}
  0,                                      !- Daily Dry-Bulb Temperature Range {deltaC}
  -20,                                    !- Humidity Indicating Conditions at Maximum Dry-Bulb
  99188,                                  !- Barometric Pressure {Pa}
  5.2,                                    !- Wind Speed {m/s}
  241,                                    !- Wind Direction {deg}
  0,                                      !- Sky Clearness
  0,                                      !- Rain Indicator
  0,                                      !- Snow Indicator
  21,                                     !- Day of Month
  1,                                      !- Month
  WinterDesignDay,                        !- Day Type
  0,                                      !- Daylight Saving Time Indicator
  Wetbulb,                                !- Humidity Indicating Type
  ,                                       !- Humidity Indicating Day Schedule Name
  DefaultMultipliers,                     !- Dry-Bulb Temperature Range Modifier Type
  ,                                       !- Dry-Bulb Temperature Range Modifier Schedule Name
  ASHRAEClearSky;                         !- Solar Model Indicator

OS:BuildingStory,
  {13437faa-b1f1-4441-b72a-b374a6e54f81}, !- Handle
  Building Story 1,                       !- Name
  0,                                      !- Nominal Z Coordinate {m}
  ,                                       !- Nominal Floor to Floor Height {m}
  ,                                       !- Default Construction Set Name
  ,                                       !- Default Schedule Set Name
  ;                                       !- Group Rendering Name

OS:BuildingStory,
  {a9a44e66-a8ae-4978-accd-c52501c0ce6d}, !- Handle
  Building Story 2,                       !- Name
  0,                                      !- Nominal Z Coordinate {m}
  ,                                       !- Nominal Floor to Floor Height {m}
  ,                                       !- Default Construction Set Name
  ,                                       !- Default Schedule Set Name
  ;                                       !- Group Rendering Name

OS:Space,
  {0db6dd77-1ea5-4c38-9669-ade6b393b8f8}, !- Handle
  zone_0_space,                           !- Name
  {f7d77f50-504d-4d88-beae-0451dd87033a}, !- Space Type Name
  ,                                       !- Default Construction Set Name
  {613bf73c-51d9-4843-8c0d-3cb54368f4e1}, !- Default Schedule Set Name
  ,                                       !- Direction of Relative North {deg}
  ,                                       !- X Origin {m}
  ,                                       !- Y Origin {m}
  ,                                       !- Z Origin {m}
  {a9a44e66-a8ae-4978-accd-c52501c0ce6d}, !- Building Story Name
  {911bb027-0bec-4a7b-8821-d9f32e1cbf8c}, !- Thermal Zone Name
  ,                                       !- Part of Total Floor Area
  {7b7a3d57-751f-466b-bc33-319456d4c390}; !- Design Specification Outdoor Air Object Name

OS:SpaceType,
  {f7d77f50-504d-4d88-beae-0451dd87033a}, !- Handle
  Office:Corridor;                        !- Name

OS:DefaultScheduleSet,
  {613bf73c-51d9-4843-8c0d-3cb54368f4e1}, !- Handle
  zone_0_DefaultScheduleSet,              !- Name
  {f1e7a5f9-37aa-49a2-96c5-54dc62674f37}, !- Hours of Operation Schedule Name
  ,                                       !- Number of People Schedule Name
  {47af8484-541a-4e1d-ae13-eeaca1e50a94}, !- People Activity Level Schedule Name
  {10c71711-cf07-4146-8139-142809a97571}, !- Lighting Schedule Name
  {dc9cf9d4-5373-49e9-9cc5-ce1601fb63c1}, !- Electric Equipment Schedule Name
  ,                                       !- Gas Equipment Schedule Name
  ,                                       !- Hot Water Equipment Schedule Name
  {dc6c75e4-52e2-4117-b0ac-2d9a5db896dd}, !- Infiltration Schedule Name
  ,                                       !- Steam Equipment Schedule Name
  ;                                       !- Other Equipment Schedule Name

OS:ScheduleTypeLimits,
  {9d07e009-89ba-4a5b-9e86-49118b4f5832}, !- Handle
  Schedule Type Limits 1,                 !- Name
  0,                                      !- Lower Limit Value
  1,                                      !- Upper Limit Value
  CONTINUOUS;                             !- Numeric Type

OS:Schedule:Year,
  {dc6c75e4-52e2-4117-b0ac-2d9a5db896dd}, !- Handle
  Medium Office Infil Quarter On,         !- Name
  {9d07e009-89ba-4a5b-9e86-49118b4f5832}, !- Schedule Type Limits Name
  1,                                      !- Month 1
  3,                                      !- Day 1
  {49578bb0-c7bc-4c69-8be9-6ee7f748e046}, !- Week Schedule Until Date 1
  12,                                     !- Month 2
  31,                                     !- Day 2
  {b9431935-7d87-4b53-b198-57284e920e80}; !- Week Schedule Until Date 2

OS:Schedule:Week,
  {49578bb0-c7bc-4c69-8be9-6ee7f748e046}, !- Handle
  Schedule:Week:Daily {10ec3e5a-5294-46cc-8ada-f12e209007b8}, !- Name
  ,                                       !- Schedule Rendering Name
  {92474125-03ca-40b6-bfd2-18fd369a7f5c}, !- Sunday Schedule:Day Name
  {92474125-03ca-40b6-bfd2-18fd369a7f5c}, !- Monday Schedule:Day Name
  {92474125-03ca-40b6-bfd2-18fd369a7f5c}, !- Tuesday Schedule:Day Name
  {92474125-03ca-40b6-bfd2-18fd369a7f5c}, !- Wednesday Schedule:Day Name
  {92474125-03ca-40b6-bfd2-18fd369a7f5c}, !- Thursday Schedule:Day Name
  {92474125-03ca-40b6-bfd2-18fd369a7f5c}, !- Friday Schedule:Day Name
  {ee6c243a-e560-4ad6-a16d-1a924d2aeb24}, !- Saturday Schedule:Day Name
  {92474125-03ca-40b6-bfd2-18fd369a7f5c}, !- Holiday Schedule:Day Name
  {0ed5ab3e-bcfb-4d15-af60-996e6ebe13a1}, !- SummerDesignDay Schedule:Day Name
  {bf672b7a-fcc7-4a8b-a4a1-b0eab05f196d}, !- WinterDesignDay Schedule:Day Name
  {92474125-03ca-40b6-bfd2-18fd369a7f5c}, !- CustomDay1 Schedule:Day Name
  {92474125-03ca-40b6-bfd2-18fd369a7f5c}; !- CustomDay2 Schedule:Day Name

OS:Schedule:Day,
  {92474125-03ca-40b6-bfd2-18fd369a7f5c}, !- Handle
  Medium Office Infil Quarter On Default Schedule, !- Name
  {9d07e009-89ba-4a5b-9e86-49118b4f5832}, !- Schedule Type Limits Name
  ,                                       !- Interpolate to Timestep
  6,                                      !- Hour 1
  0,                                      !- Minute 1
  1,                                      !- Value Until Time 1
  22,                                     !- Hour 2
  0,                                      !- Minute 2
  0.25,                                   !- Value Until Time 2
  24,                                     !- Hour 3
  0,                                      !- Minute 3
  1;                                      !- Value Until Time 3

OS:Schedule:Day,
  {ee6c243a-e560-4ad6-a16d-1a924d2aeb24}, !- Handle
  Medium Office Infil Quarter On Rule 2 Day Schedule, !- Name
  {9d07e009-89ba-4a5b-9e86-49118b4f5832}, !- Schedule Type Limits Name
  ,                                       !- Interpolate to Timestep
  6,                                      !- Hour 1
  0,                                      !- Minute 1
  1,                                      !- Value Until Time 1
  18,                                     !- Hour 2
  0,                                      !- Minute 2
  0.25,                                   !- Value Until Time 2
  24,                                     !- Hour 3
  0,                                      !- Minute 3
  1;                                      !- Value Until Time 3

OS:Schedule:Day,
  {0ed5ab3e-bcfb-4d15-af60-996e6ebe13a1}, !- Handle
  Medium Office Infil Quarter On Summer Design Day, !- Name
  {9d07e009-89ba-4a5b-9e86-49118b4f5832}, !- Schedule Type Limits Name
  ,                                       !- Interpolate to Timestep
  6,                                      !- Hour 1
  0,                                      !- Minute 1
  1,                                      !- Value Until Time 1
  22,                                     !- Hour 2
  0,                                      !- Minute 2
  0.25,                                   !- Value Until Time 2
  24,                                     !- Hour 3
  0,                                      !- Minute 3
  1;                                      !- Value Until Time 3

OS:Schedule:Day,
  {bf672b7a-fcc7-4a8b-a4a1-b0eab05f196d}, !- Handle
  Medium Office Infil Quarter On Winter Design Day, !- Name
  {9d07e009-89ba-4a5b-9e86-49118b4f5832}, !- Schedule Type Limits Name
  ,                                       !- Interpolate to Timestep
  6,                                      !- Hour 1
  0,                                      !- Minute 1
  1,                                      !- Value Until Time 1
  18,                                     !- Hour 2
  0,                                      !- Minute 2
  0.25,                                   !- Value Until Time 2
  24,                                     !- Hour 3
  0,                                      !- Minute 3
  1;                                      !- Value Until Time 3

OS:YearDescription,
  {842f62d0-b22e-4e98-aa5b-9fa95a044f73}; !- Handle

OS:Schedule:Week,
  {b9431935-7d87-4b53-b198-57284e920e80}, !- Handle
  Schedule:Week:Daily {20898e88-71dc-48a1-8bf4-30a1d78b98f6}, !- Name
  ,                                       !- Schedule Rendering Name
  {662952e6-e607-4168-a060-86449827e525}, !- Sunday Schedule:Day Name
  {92474125-03ca-40b6-bfd2-18fd369a7f5c}, !- Monday Schedule:Day Name
  {92474125-03ca-40b6-bfd2-18fd369a7f5c}, !- Tuesday Schedule:Day Name
  {92474125-03ca-40b6-bfd2-18fd369a7f5c}, !- Wednesday Schedule:Day Name
  {92474125-03ca-40b6-bfd2-18fd369a7f5c}, !- Thursday Schedule:Day Name
  {92474125-03ca-40b6-bfd2-18fd369a7f5c}, !- Friday Schedule:Day Name
  {ee6c243a-e560-4ad6-a16d-1a924d2aeb24}, !- Saturday Schedule:Day Name
  {92474125-03ca-40b6-bfd2-18fd369a7f5c}, !- Holiday Schedule:Day Name
  {0ed5ab3e-bcfb-4d15-af60-996e6ebe13a1}, !- SummerDesignDay Schedule:Day Name
  {bf672b7a-fcc7-4a8b-a4a1-b0eab05f196d}, !- WinterDesignDay Schedule:Day Name
  {92474125-03ca-40b6-bfd2-18fd369a7f5c}, !- CustomDay1 Schedule:Day Name
  {92474125-03ca-40b6-bfd2-18fd369a7f5c}; !- CustomDay2 Schedule:Day Name

OS:Schedule:Day,
  {662952e6-e607-4168-a060-86449827e525}, !- Handle
  Medium Office Infil Quarter On Rule 1 Day Schedule, !- Name
  {9d07e009-89ba-4a5b-9e86-49118b4f5832}, !- Schedule Type Limits Name
  ,                                       !- Interpolate to Timestep
  24,                                     !- Hour 1
  0,                                      !- Minute 1
  1;                                      !- Value Until Time 1

OS:Schedule:Year,
  {10c71711-cf07-4146-8139-142809a97571}, !- Handle
  Office Bldg Light,                      !- Name
  {9d07e009-89ba-4a5b-9e86-49118b4f5832}, !- Schedule Type Limits Name
  1,                                      !- Month 1
  3,                                      !- Day 1
  {164c7269-a8d7-4da3-8c4b-52d1881ae186}, !- Week Schedule Until Date 1
  12,                                     !- Month 2
  31,                                     !- Day 2
  {cf00c090-0796-4297-abd4-c3ca4ae7b20f}; !- Week Schedule Until Date 2

OS:Schedule:Week,
  {164c7269-a8d7-4da3-8c4b-52d1881ae186}, !- Handle
  Schedule:Week:Daily {77782ce5-1a70-49a7-b72d-db0988271982}, !- Name
  ,                                       !- Schedule Rendering Name
  {5b290bc1-1317-413b-9781-59af603cb03c}, !- Sunday Schedule:Day Name
  {5b290bc1-1317-413b-9781-59af603cb03c}, !- Monday Schedule:Day Name
  {5b290bc1-1317-413b-9781-59af603cb03c}, !- Tuesday Schedule:Day Name
  {5b290bc1-1317-413b-9781-59af603cb03c}, !- Wednesday Schedule:Day Name
  {5b290bc1-1317-413b-9781-59af603cb03c}, !- Thursday Schedule:Day Name
  {5b290bc1-1317-413b-9781-59af603cb03c}, !- Friday Schedule:Day Name
  {aff3b7ed-d805-49d6-a19a-24e807598eb9}, !- Saturday Schedule:Day Name
  {5b290bc1-1317-413b-9781-59af603cb03c}, !- Holiday Schedule:Day Name
  {eb68dba4-78f4-46b0-85ce-55ecfcd62b3e}, !- SummerDesignDay Schedule:Day Name
  {f2bf3049-fbde-4cf1-b66f-42c445026add}, !- WinterDesignDay Schedule:Day Name
  {5b290bc1-1317-413b-9781-59af603cb03c}, !- CustomDay1 Schedule:Day Name
  {5b290bc1-1317-413b-9781-59af603cb03c}; !- CustomDay2 Schedule:Day Name

OS:Schedule:Day,
  {5b290bc1-1317-413b-9781-59af603cb03c}, !- Handle
  Office Bldg Light Default Schedule,     !- Name
  {9d07e009-89ba-4a5b-9e86-49118b4f5832}, !- Schedule Type Limits Name
  ,                                       !- Interpolate to Timestep
  5,                                      !- Hour 1
  0,                                      !- Minute 1
  0.05,                                   !- Value Until Time 1
  7,                                      !- Hour 2
  0,                                      !- Minute 2
  0.1,                                    !- Value Until Time 2
  8,                                      !- Hour 3
  0,                                      !- Minute 3
  0.3,                                    !- Value Until Time 3
  17,                                     !- Hour 4
  0,                                      !- Minute 4
  0.9,                                    !- Value Until Time 4
  18,                                     !- Hour 5
  0,                                      !- Minute 5
  0.7,                                    !- Value Until Time 5
  20,                                     !- Hour 6
  0,                                      !- Minute 6
  0.5,                                    !- Value Until Time 6
  22,                                     !- Hour 7
  0,                                      !- Minute 7
  0.3,                                    !- Value Until Time 7
  23,                                     !- Hour 8
  0,                                      !- Minute 8
  0.1,                                    !- Value Until Time 8
  24,                                     !- Hour 9
  0,                                      !- Minute 9
  0.05;                                   !- Value Until Time 9

OS:Schedule:Day,
  {aff3b7ed-d805-49d6-a19a-24e807598eb9}, !- Handle
  Office Bldg Light Rule 2 Day Schedule,  !- Name
  {9d07e009-89ba-4a5b-9e86-49118b4f5832}, !- Schedule Type Limits Name
  ,                                       !- Interpolate to Timestep
  6,                                      !- Hour 1
  0,                                      !- Minute 1
  0.05,                                   !- Value Until Time 1
  8,                                      !- Hour 2
  0,                                      !- Minute 2
  0.1,                                    !- Value Until Time 2
  14,                                     !- Hour 3
  0,                                      !- Minute 3
  0.5,                                    !- Value Until Time 3
  17,                                     !- Hour 4
  0,                                      !- Minute 4
  0.15,                                   !- Value Until Time 4
  24,                                     !- Hour 5
  0,                                      !- Minute 5
  0.05;                                   !- Value Until Time 5

OS:Schedule:Day,
  {eb68dba4-78f4-46b0-85ce-55ecfcd62b3e}, !- Handle
  Office Bldg Light Summer Design Day,    !- Name
  {9d07e009-89ba-4a5b-9e86-49118b4f5832}, !- Schedule Type Limits Name
  ,                                       !- Interpolate to Timestep
  24,                                     !- Hour 1
  0,                                      !- Minute 1
  1;                                      !- Value Until Time 1

OS:Schedule:Day,
  {f2bf3049-fbde-4cf1-b66f-42c445026add}, !- Handle
  Office Bldg Light Winter Design Day,    !- Name
  {9d07e009-89ba-4a5b-9e86-49118b4f5832}, !- Schedule Type Limits Name
  ,                                       !- Interpolate to Timestep
  24,                                     !- Hour 1
  0,                                      !- Minute 1
  0;                                      !- Value Until Time 1

OS:Schedule:Week,
  {cf00c090-0796-4297-abd4-c3ca4ae7b20f}, !- Handle
  Schedule:Week:Daily {1558189b-593c-4115-b061-465417357844}, !- Name
  ,                                       !- Schedule Rendering Name
  {99b85fda-94e0-4ebf-bea5-237d26ebf67f}, !- Sunday Schedule:Day Name
  {5b290bc1-1317-413b-9781-59af603cb03c}, !- Monday Schedule:Day Name
  {5b290bc1-1317-413b-9781-59af603cb03c}, !- Tuesday Schedule:Day Name
  {5b290bc1-1317-413b-9781-59af603cb03c}, !- Wednesday Schedule:Day Name
  {5b290bc1-1317-413b-9781-59af603cb03c}, !- Thursday Schedule:Day Name
  {5b290bc1-1317-413b-9781-59af603cb03c}, !- Friday Schedule:Day Name
  {aff3b7ed-d805-49d6-a19a-24e807598eb9}, !- Saturday Schedule:Day Name
  {5b290bc1-1317-413b-9781-59af603cb03c}, !- Holiday Schedule:Day Name
  {eb68dba4-78f4-46b0-85ce-55ecfcd62b3e}, !- SummerDesignDay Schedule:Day Name
  {f2bf3049-fbde-4cf1-b66f-42c445026add}, !- WinterDesignDay Schedule:Day Name
  {5b290bc1-1317-413b-9781-59af603cb03c}, !- CustomDay1 Schedule:Day Name
  {5b290bc1-1317-413b-9781-59af603cb03c}; !- CustomDay2 Schedule:Day Name

OS:Schedule:Day,
  {99b85fda-94e0-4ebf-bea5-237d26ebf67f}, !- Handle
  Office Bldg Light Rule 1 Day Schedule,  !- Name
  {9d07e009-89ba-4a5b-9e86-49118b4f5832}, !- Schedule Type Limits Name
  ,                                       !- Interpolate to Timestep
  24,                                     !- Hour 1
  0,                                      !- Minute 1
  0.05;                                   !- Value Until Time 1

OS:Schedule:Year,