
OS:Version,
  {7acbc326-7618-4144-b8d4-16e15607b622}, !- Handle
  2.1.0;                                  !- Version Identifier

OS:RunPeriod,
  {9278c488-4857-4fc0-8810-38ed687a2c6b}, !- Handle
  Run Period 1,                           !- Name
  1,                                      !- Begin Month
  1,                                      !- Begin Day of Month
  12,                                     !- End Month
  31,                                     !- End Day of Month
  ,                                       !- Use Weather File Holidays and Special Days
  ,                                       !- Use Weather File Daylight Saving Period
  ,                                       !- Apply Weekend Holiday Rule
  ,                                       !- Use Weather File Rain Indicators
  ,                                       !- Use Weather File Snow Indicators
  ;                                       !- Number of Times Runperiod to be Repeated

OS:Timestep,
  {d78402cc-9ec3-4b68-a8bf-8172a03e57df}, !- Handle
  6;                                      !- Number of Timesteps per Hour

OS:Building,
  {26dab69c-1610-4d50-9074-ef537384d430}, !- Handle
  Building 1,                             !- Name
  ,                                       !- Building Sector Type
  0,                                      !- North Axis {deg}
  ,                                       !- Nominal Floor to Floor Height {m}
  ,                                       !- Space Type Name
  ,                                       !- Default Construction Set Name
  ;                                       !- Default Schedule Set Name

OS:Site,
  {eba925f2-6380-4cdf-87f7-f78245806ea7}, !- Handle
  Chicago Ohare Intl Ap	USA,              !- Name
  41.98,                                  !- Latitude {deg}
  -87.92,                                 !- Longitude {deg}
  -6,                                     !- Time Zone {hr}
  201,                                    !- Elevation {m}
  City;                                   !- Terrain

OS:SimulationControl,
  {3640d9a5-a0fe-44eb-ad36-a5381e6dbed6}, !- Handle
  Yes,                                    !- Do Zone Sizing Calculation
  Yes,                                    !- Do System Sizing Calculation
  Yes,                                    !- Do Plant Sizing Calculation
  No,                                     !- Run Simulation for Sizing Periods
  Yes,                                    !- Run Simulation for Weather File Run Periods
  ,                                       !- Loads Convergence Tolerance Value
  ,                                       !- Temperature Convergence Tolerance Value {deltaC}
  FullInteriorAndExteriorWithReflections; !- Solar Distribution

OS:ShadowCalculation,
  {23bc02f2-cbeb-4c59-a93a-3eb05c06eeb4}, !- Handle
  30,                                     !- Calculation Frequency
  3000;                                   !- Maximum Figures in Shadow Overlap Calculations

OS:Sizing:Parameters,
  {23d62507-c796-44f9-9997-bd785fab5f22}, !- Handle
  1.25,                                   !- Heating Sizing Factor
  1.15;                                   !- Cooling Sizing Factor

OS:SizingPeriod:DesignDay,
  {e19b850c-4350-4bde-ae1f-aa2891fc1eac}, !- Handle
  Ann Htg Wind 99.6% Condns WS=>MCDB,     !- Name
  -2.2,                                   !- Maximum Dry-Bulb Temperature {C}
  0,                                      !- Daily Dry-Bulb Temperature Range {deltaC}
  -2.2,                                   !- Humidity Indicating Conditions at Maximum Dry-Bulb
  99188,                                  !- Barometric Pressure {Pa}
  12.4,                                   !- Wind Speed {m/s}
  241,                                    !- Wind Direction {deg}
  0,                                      !- Sky Clearness
  0,                                      !- Rain Indicator
  0,                                      !- Snow Indicator
  21,                                     !- Day of Month
  1,                                      !- Month
  WinterDesignDay,                        !- Day Type
  0,                                      !- Daylight Saving Time Indicator
  Wetbulb,                                !- Humidity Indicating Type
  ,                                       !- Humidity Indicating Day Schedule Name
  DefaultMultipliers,                     !- Dry-Bulb Temperature Range Modifier Type
  ,                                       !- Dry-Bulb Temperature Range Modifier Schedule Name
  ASHRAEClearSky;                         !- Solar Model Indicator

OS:SizingPeriod:DesignDay,
  {4e3edaa4-1b03-4dc6-84d6-e4457b262ef2}, !- Handle
  Ann Clg .4% Condns DP=>MDB,             !- Name
  32.8,                                   !- Maximum Dry-Bulb Temperature {C}
  10.6,                                   !- Daily Dry-Bulb Temperature Range {deltaC}
  23.3,                                   !- Humidity Indicating Conditions at Maximum Dry-Bulb
  99188,                                  !- Barometric Pressure {Pa}
  6.2,                                    !- Wind Speed {m/s}
  191,                                    !- Wind Direction {deg}
  1.2,                                    !- Sky Clearness
  0,                                      !- Rain Indicator
  0,                                      !- Snow Indicator
  21,                                     !- Day of Month
  7,                                      !- Month
  SummerDesignDay,                        !- Day Type
  0,                                      !- Daylight Saving Time Indicator
  Dewpoint,                               !- Humidity Indicating Type
  ,                                       !- Humidity Indicating Day Schedule Name
  DefaultMultipliers,                     !- Dry-Bulb Temperature Range Modifier Type
  ,                                       !- Dry-Bulb Temperature Range Modifier Schedule Name
  ASHRAEClearSky;                         !- Solar Model Indicator

OS:SizingPeriod:DesignDay,
  {deb4bb74-9ca3-41a6-a459-906b6583c486}, !- Handle
  Ann Clg .4% Condns Enth=>MDB,           !- Name
  31.7,                                   !- Maximum Dry-Bulb Temperature {C}
  10.6,                                   !- Daily Dry-Bulb Temperature Range {deltaC}
  78779,                                  !- Humidity Indicating Conditions at Maximum Dry-Bulb
  99188,                                  !- Barometric Pressure {Pa}
  6.2,                                    !- Wind Speed {m/s}
  191,                                    !- Wind Direction {deg}
  1.2,                                    !- Sky Clearness
  0,                                      !- Rain Indicator
  0,                                      !- Snow Indicator
  21,                                     !- Day of Month
  7,                                      !- Month
  SummerDesignDay,                        !- Day Type
  0,                                      !- Daylight Saving Time Indicator
  Enthalpy,                               !- Humidity Indicating Type
  ,                                       !- Humidity Indicating Day Schedule Name
  DefaultMultipliers,                     !- Dry-Bulb Temperature Range Modifier Type
  ,                                       !- Dry-Bulb Temperature Range Modifier Schedule Name
  ASHRAEClearSky;                         !- Solar Model Indicator

OS:SizingPeriod:DesignDay,
  {4eb7be7f-91b9-4992-8431-92de53ce017a}, !- Handle
  Ann Hum_n 99.6% Condns DP=>MCDB,        !- Name
  -17.8,                                  !- Maximum Dry-Bulb Temperature {C}
  0,                                      !- Daily Dry-Bulb Temperature Range {deltaC}
  -26.7,                                  !- Humidity Indicating Conditions at Maximum Dry-Bulb
  99188,                                  !- Barometric Pressure {Pa}
  5.2,                                    !- Wind Speed {m/s}
  241,                                    !- Wind Direction {deg}
  0,                                      !- Sky Clearness
  0,                                      !- Rain Indicator
  0,                                      !- Snow Indicator
  21,                                     !- Day of Month
  1,                                      !- Month
  WinterDesignDay,                        !- Day Type
  0,                                      !- Daylight Saving Time Indicator
  Dewpoint,                               !- Humidity Indicating Type
  ,                                       !- Humidity Indicating Day Schedule Name
  DefaultMultipliers,                     !- Dry-Bulb Temperature Range Modifier Type
  ,                                       !- Dry-Bulb Temperature Range Modifier Schedule Name
  ASHRAEClearSky;                         !- Solar Model Indicator

OS:SizingPeriod:DesignDay,
  {e30c482f-0dbc-4338-9bba-f1d67141ebec}, !- Handle
  Ann Clg .4% Condns DB=>MWB,             !- Name
  32.2,                                   !- Maximum Dry-Bulb Temperature {C}
  10.6,                                   !- Daily Dry-Bulb Temperature Range {deltaC}
  25.441,                                 !- Humidity Indicating Conditions at Maximum Dry-Bulb
  99188,                                  !- Barometric Pressure {Pa}
  6.2,                                    !- Wind Speed {m/s}
  191,                                    !- Wind Direction {deg}
  1.2,                                    !- Sky Clearness
  0,                                      !- Rain Indicator
  0,                                      !- Snow Indicator
  21,                                     !- Day of Month
  7,                                      !- Month
  SummerDesignDay,                        !- Day Type
  0,                                      !- Daylight Saving Time Indicator
  Wetbulb,                                !- Humidity Indicating Type
  ,                                       !- Humidity Indicating Day Schedule Name
  DefaultMultipliers,                     !- Dry-Bulb Temperature Range Modifier Type
  ,                                       !- Dry-Bulb Temperature Range Modifier Schedule Name
  ASHRAEClearSky;                         !- Solar Model Indicator

OS:SizingPeriod:DesignDay,
  {ade787d7-9187-4bff-9707-4a81964064c1}, !- Handle
  Ann Clg .4% Condns WB=>MDB,             !- Name
  31.7,                                   !- Maximum Dry-Bulb Temperature {C}
  10.6,                                   !- Daily Dry-Bulb Temperature Range {deltaC}
  25.54,                                  !- Humidity Indicating Conditions at Maximum Dry-Bulb
  99188,                                  !- Barometric Pressure {Pa}
  6.2,                                    !- Wind Speed {m/s}
  191,                                    !- Wind Direction {deg}
  1.2,                                    !- Sky Clearness
  0,                                      !- Rain Indicator
  0,                                      !- Snow Indicator
  21,                                     !- Day of Month
  7,                                      !- Month
  SummerDesignDay,                        !- Day Type
  0,                                      !- Daylight Saving Time Indicator
  Wetbulb,                                !- Humidity Indicating Type
  ,                                       !- Humidity Indicating Day Schedule Name
  DefaultMultipliers,                     !- Dry-Bulb Temperature Range Modifier Type
  ,                                       !- Dry-Bulb Temperature Range Modifier Schedule Name
  ASHRAEClearSky;                         !- Solar Model Indicator

OS:SizingPeriod:DesignDay,
  {62c44369-0162-4a40-9f03-1c2f5ce6b7fd}, !- Handle
  Ann Htg 99.6% Condns DB,                !- Name
  -20,                                    !- Maximum Dry-Bulb Temperature {C}
  0,                                      !- Daily Dry-Bulb Temperature Range {deltaC}
  -20,                                    !- Humidity Indicating Conditions at Maximum Dry-Bulb
  99188,                                  !- Barometric Pressure {Pa}
  5.2,                                    !- Wind Speed {m/s}
  241,                                    !- Wind Direction {deg}
  0,                                      !- Sky Clearness
  0,                                      !- Rain Indicator
  0,                                      !- Snow Indicator
  21,                                     !- Day of Month
  1,                                      !- Month
  WinterDesignDay,                        !- Day Type
  0,                                      !- Daylight Saving Time Indicator
  Wetbulb,                                !- Humidity Indicating Type
  ,                                       !- Humidity Indicating Day Schedule Name
  DefaultMultipliers,                     !- Dry-Bulb Temperature Range Modifier Type
  ,                                       !- Dry-Bulb Temperature Range Modifier Schedule Name
  ASHRAEClearSky;                         !- Solar Model Indicator

OS:BuildingStory,
  {d4d34845-c455-4e3f-833e-42aa433b2fb5}, !- Handle
  Building Story 1,                       !- Name
  0,                                      !- Nominal Z Coordinate {m}
  ,                                       !- Nominal Floor to Floor Height {m}
  ,                                       !- Default Construction Set Name
  ,                                       !- Default Schedule Set Name
  ;                                       !- Group Rendering Name

OS:BuildingStory,
  {f39e5104-d299-4368-914e-0b460e593e38}, !- Handle
  Building Story 2,                       !- Name
  0,                                      !- Nominal Z Coordinate {m}
  ,                                       !- Nominal Floor to Floor Height {m}
  ,                                       !- Default Construction Set Name
  ,                                       !- Default Schedule Set Name
  ;                                       !- Group Rendering Name

OS:Space,
  {b3e0ba8c-1f5a-4ce6-bfed-13b450c4b679}, !- Handle
  zone_0_space,                           !- Name
  {0c6a9d99-ae2e-4531-8a2c-142041758805}, !- Space Type Name
  ,                                       !- Default Construction Set Name
  {f3897881-c194-4057-bf0f-bfb92ed2885f}, !- Default Schedule Set Name
  ,                                       !- Direction of Relative North {deg}
  ,                                       !- X Origin {m}
  ,                                       !- Y Origin {m}
  ,                                       !- Z Origin {m}
  {f39e5104-d299-4368-914e-0b460e593e38}, !- Building Story Name
  {d52d6baf-2db3-4a75-b9df-66543d0f1f73}, !- Thermal Zone Name
  ,                                       !- Part of Total Floor Area
  {6bcd6eb8-1536-4eb2-8e6c-3f70bcdcecb2}; !- Design Specification Outdoor Air Object Name

OS:SpaceType,
  {0c6a9d99-ae2e-4531-8a2c-142041758805}, !- Handle
  Office:Corridor;                        !- Name

OS:DefaultScheduleSet,
  {f3897881-c194-4057-bf0f-bfb92ed2885f}, !- Handle
  zone_0_DefaultScheduleSet,              !- Name
  {528e464a-67d5-4e34-8ee3-b95df8393f29}, !- Hours of Operation Schedule Name
  ,                                       !- Number of People Schedule Name
  {c16ee256-690b-4fa9-94d3-b4e9543eb4e8}, !- People Activity Level Schedule Name
  {0ae259c4-e7af-4a73-a47a-6c0290d7abcf}, !- Lighting Schedule Name
  {61db74c6-a5b1-4ff4-9789-3e616fb1c69c}, !- Electric Equipment Schedule Name
  ,                                       !- Gas Equipment Schedule Name
  ,                                       !- Hot Water Equipment Schedule Name
  {ca1f223b-9626-4f9b-b6f1-4311856b0687}, !- Infiltration Schedule Name
  ,                                       !- Steam Equipment Schedule Name
  ;                                       !- Other Equipment Schedule Name

OS:ScheduleTypeLimits,
  {45bcac51-f820-480e-b9c4-9be29a9d687f}, !- Handle
  Schedule Type Limits 1,                 !- Name
  0,                                      !- Lower Limit Value
  1,                                      !- Upper Limit Value
  CONTINUOUS;                             !- Numeric Type

OS:Schedule:Year,
  {ca1f223b-9626-4f9b-b6f1-4311856b0687}, !- Handle
  Medium Office Infil Quarter On,         !- Name
  {45bcac51-f820-480e-b9c4-9be29a9d687f}, !- Schedule Type Limits Name
  1,                                      !- Month 1
  3,                                      !- Day 1
  {95a1fa06-4e5f-4b9a-b2a4-a7b233ae4e3e}, !- Week Schedule Until Date 1
  12,                                     !- Month 2
  31,                                     !- Day 2
  {b896e651-de19-40ec-9140-9497e845fa5e}; !- Week Schedule Until Date 2

OS:Schedule:Week,
  {95a1fa06-4e5f-4b9a-b2a4-a7b233ae4e3e}, !- Handle
  Schedule:Week:Daily {10ec3e5a-5294-46cc-8ada-f12e209007b8}, !- Name
  ,                                       !- Schedule Rendering Name
  {72ffc33e-d166-45cd-a591-46ef10e9f764}, !- Sunday Schedule:Day Name
  {72ffc33e-d166-45cd-a591-46ef10e9f764}, !- Monday Schedule:Day Name
  {72ffc33e-d166-45cd-a591-46ef10e9f764}, !- Tuesday Schedule:Day Name
  {72ffc33e-d166-45cd-a591-46ef10e9f764}, !- Wednesday Schedule:Day Name
  {72ffc33e-d166-45cd-a591-46ef10e9f764}, !- Thursday Schedule:Day Name
  {72ffc33e-d166-45cd-a591-46ef10e9f764}, !- Friday Schedule:Day Name
  {dc78e588-238a-4030-85b6-f850b655ef1f}, !- Saturday Schedule:Day Name
  {72ffc33e-d166-45cd-a591-46ef10e9f764}, !- Holiday Schedule:Day Name
  {47ecde28-770a-4283-b519-fe177144680d}, !- SummerDesignDay Schedule:Day Name
  {050ffb15-dce8-4a23-b167-245fa9178872}, !- WinterDesignDay Schedule:Day Name
  {72ffc33e-d166-45cd-a591-46ef10e9f764}, !- CustomDay1 Schedule:Day Name
  {72ffc33e-d166-45cd-a591-46ef10e9f764}; !- CustomDay2 Schedule:Day Name

OS:Schedule:Day,
  {72ffc33e-d166-45cd-a591-46ef10e9f764}, !- Handle
  Medium Office Infil Quarter On Default Schedule, !- Name
  {45bcac51-f820-480e-b9c4-9be29a9d687f}, !- Schedule Type Limits Name
  ,                                       !- Interpolate to Timestep
  6,                                      !- Hour 1
  0,                                      !- Minute 1
  1,                                      !- Value Until Time 1
  22,                                     !- Hour 2
  0,                                      !- Minute 2
  0.25,                                   !- Value Until Time 2
  24,                                     !- Hour 3
  0,                                      !- Minute 3
  1;                                      !- Value Until Time 3

OS:Schedule:Day,
  {dc78e588-238a-4030-85b6-f850b655ef1f}, !- Handle
  Medium Office Infil Quarter On Rule 2 Day Schedule, !- Name
  {45bcac51-f820-480e-b9c4-9be29a9d687f}, !- Schedule Type Limits Name
  ,                                       !- Interpolate to Timestep
  6,                                      !- Hour 1
  0,                                      !- Minute 1
  1,                                      !- Value Until Time 1
  18,                                     !- Hour 2
  0,                                      !- Minute 2
  0.25,                                   !- Value Until Time 2
  24,                                     !- Hour 3
  0,                                      !- Minute 3
  1;                                      !- Value Until Time 3

OS:Schedule:Day,
  {47ecde28-770a-4283-b519-fe177144680d}, !- Handle
  Medium Office Infil Quarter On Summer Design Day, !- Name
  {45bcac51-f820-480e-b9c4-9be29a9d687f}, !- Schedule Type Limits Name
  ,                                       !- Interpolate to Timestep
  6,                                      !- Hour 1
  0,                                      !- Minute 1
  1,                                      !- Value Until Time 1
  22,                                     !- Hour 2
  0,                                      !- Minute 2
  0.25,                                   !- Value Until Time 2
  24,                                     !- Hour 3
  0,                                      !- Minute 3
  1;                                      !- Value Until Time 3

OS:Schedule:Day,
  {050ffb15-dce8-4a23-b167-245fa9178872}, !- Handle
  Medium Office Infil Quarter On Winter Design Day, !- Name
  {45bcac51-f820-480e-b9c4-9be29a9d687f}, !- Schedule Type Limits Name
  ,                                       !- Interpolate to Timestep
  6,                                      !- Hour 1
  0,                                      !- Minute 1
  1,                                      !- Value Until Time 1
  18,                                     !- Hour 2
  0,                                      !- Minute 2
  0.25,                                   !- Value Until Time 2
  24,                                     !- Hour 3
  0,                                      !- Minute 3
  1;                                      !- Value Until Time 3

OS:YearDescription,
  {013e49fd-1637-4600-8378-d7ed5d337fdd}; !- Handle

OS:Schedule:Week,
  {b896e651-de19-40ec-9140-9497e845fa5e}, !- Handle
  Schedule:Week:Daily {20898e88-71dc-48a1-8bf4-30a1d78b98f6}, !- Name
  ,                                       !- Schedule Rendering Name
  {b58cf5e9-5cd0-450d-9690-e7d67625ac9a}, !- Sunday Schedule:Day Name
  {72ffc33e-d166-45cd-a591-46ef10e9f764}, !- Monday Schedule:Day Name
  {72ffc33e-d166-45cd-a591-46ef10e9f764}, !- Tuesday Schedule:Day Name
  {72ffc33e-d166-45cd-a591-46ef10e9f764}, !- Wednesday Schedule:Day Name
  {72ffc33e-d166-45cd-a591-46ef10e9f764}, !- Thursday Schedule:Day Name
  {72ffc33e-d166-45cd-a591-46ef10e9f764}, !- Friday Schedule:Day Name
  {dc78e588-238a-4030-85b6-f850b655ef1f}, !- Saturday Schedule:Day Name
  {72ffc33e-d166-45cd-a591-46ef10e9f764}, !- Holiday Schedule:Day Name
  {47ecde28-770a-4283-b519-fe177144680d}, !- SummerDesignDay Schedule:Day Name
  {050ffb15-dce8-4a23-b167-245fa9178872}, !- WinterDesignDay Schedule:Day Name
  {72ffc33e-d166-45cd-a591-46ef10e9f764}, !- CustomDay1 Schedule:Day Name
  {72ffc33e-d166-45cd-a591-46ef10e9f764}; !- CustomDay2 Schedule:Day Name

OS:Schedule:Day,
  {b58cf5e9-5cd0-450d-9690-e7d67625ac9a}, !- Handle
  Medium Office Infil Quarter On Rule 1 Day Schedule, !- Name
  {45bcac51-f820-480e-b9c4-9be29a9d687f}, !- Schedule Type Limits Name
  ,                                       !- Interpolate to Timestep
  24,                                     !- Hour 1
  0,                                      !- Minute 1
  1;                                      !- Value Until Time 1

OS:Schedule:Year,
  {0ae259c4-e7af-4a73-a47a-6c0290d7abcf}, !- Handle
  Office Bldg Light,                      !- Name
  {45bcac51-f820-480e-b9c4-9be29a9d687f}, !- Schedule Type Limits Name
  1,                                      !- Month 1
  3,                                      !- Day 1
  {44b44849-7403-4fb7-9e13-da14ababc303}, !- Week Schedule Until Date 1
  12,                                     !- Month 2
  31,                                     !- Day 2
  {cc605aa8-56d7-427d-9d2b-f912af8df379}; !- Week Schedule Until Date 2

OS:Schedule:Week,
  {44b44849-7403-4fb7-9e13-da14ababc303}, !- Handle
  Schedule:Week:Daily {77782ce5-1a70-49a7-b72d-db0988271982}, !- Name
  ,                                       !- Schedule Rendering Name
  {c33193a4-f111-47b1-be92-962e56d24f25}, !- Sunday Schedule:Day Name
  {c33193a4-f111-47b1-be92-962e56d24f25}, !- Monday Schedule:Day Name
  {c33193a4-f111-47b1-be92-962e56d24f25}, !- Tuesday Schedule:Day Name
  {c33193a4-f111-47b1-be92-962e56d24f25}, !- Wednesday Schedule:Day Name
  {c33193a4-f111-47b1-be92-962e56d24f25}, !- Thursday Schedule:Day Name
  {c33193a4-f111-47b1-be92-962e56d24f25}, !- Friday Schedule:Day Name
  {07cf023a-881b-4593-9eee-762af2a704b7}, !- Saturday Schedule:Day Name
  {c33193a4-f111-47b1-be92-962e56d24f25}, !- Holiday Schedule:Day Name
  {c423040d-24de-48df-92a4-79021de9d80e}, !- SummerDesignDay Schedule:Day Name
  {72fefc90-12d1-40a7-b622-825caede556d}, !- WinterDesignDay Schedule:Day Name
  {c33193a4-f111-47b1-be92-962e56d24f25}, !- CustomDay1 Schedule:Day Name
  {c33193a4-f111-47b1-be92-962e56d24f25}; !- CustomDay2 Schedule:Day Name

OS:Schedule:Day,
  {c33193a4-f111-47b1-be92-962e56d24f25}, !- Handle
  Office Bldg Light Default Schedule,     !- Name
  {45bcac51-f820-480e-b9c4-9be29a9d687f}, !- Schedule Type Limits Name
  ,                                       !- Interpolate to Timestep
  5,                                      !- Hour 1
  0,                                      !- Minute 1
  0.05,                                   !- Value Until Time 1
  7,                                      !- Hour 2
  0,                                      !- Minute 2
  0.1,                                    !- Value Until Time 2
  8,                                      !- Hour 3
  0,                                      !- Minute 3
  0.3,                                    !- Value Until Time 3
  17,                                     !- Hour 4
  0,                                      !- Minute 4
  0.9,                                    !- Value Until Time 4
  18,                                     !- Hour 5
  0,                                      !- Minute 5
  0.7,                                    !- Value Until Time 5
  20,                                     !- Hour 6
  0,                                      !- Minute 6
  0.5,                                    !- Value Until Time 6
  22,                                     !- Hour 7
  0,                                      !- Minute 7
  0.3,                                    !- Value Until Time 7
  23,                                     !- Hour 8
  0,                                      !- Minute 8
  0.1,                                    !- Value Until Time 8
  24,                                     !- Hour 9
  0,                                      !- Minute 9
  0.05;                                   !- Value Until Time 9

OS:Schedule:Day,
  {07cf023a-881b-4593-9eee-762af2a704b7}, !- Handle
  Office Bldg Light Rule 2 Day Schedule,  !- Name
  {45bcac51-f820-480e-b9c4-9be29a9d687f}, !- Schedule Type Limits Name
  ,                                       !- Interpolate to Timestep
  6,                                      !- Hour 1
  0,                                      !- Minute 1
  0.05,                                   !- Value Until Time 1
  8,                                      !- Hour 2
  0,                                      !- Minute 2
  0.1,                                    !- Value Until Time 2
  14,                                     !- Hour 3
  0,                                      !- Minute 3
  0.5,                                    !- Value Until Time 3
  17,                                     !- Hour 4
  0,                                      !- Minute 4
  0.15,                                   !- Value Until Time 4
  24,                                     !- Hour 5
  0,                                      !- Minute 5
  0.05;                                   !- Value Until Time 5

OS:Schedule:Day,
  {c423040d-24de-48df-92a4-79021de9d80e}, !- Handle
  Office Bldg Light Summer Design Day,    !- Name
  {45bcac51-f820-480e-b9c4-9be29a9d687f}, !- Schedule Type Limits Name
  ,                                       !- Interpolate to Timestep
  24,                                     !- Hour 1
  0,                                      !- Minute 1
  1;                                      !- Value Until Time 1

OS:Schedule:Day,
  {72fefc90-12d1-40a7-b622-825caede556d}, !- Handle
  Office Bldg Light Winter Design Day,    !- Name
  {45bcac51-f820-480e-b9c4-9be29a9d687f}, !- Schedule Type Limits Name
  ,                                       !- Interpolate to Timestep
  24,                                     !- Hour 1
  0,                                      !- Minute 1
  0;                                      !- Value Until Time 1

OS:Schedule:Week,
  {cc605aa8-56d7-427d-9d2b-f912af8df379}, !- Handle
  Schedule:Week:Daily {1558189b-593c-4115-b061-465417357844}, !- Name
  ,                                       !- Schedule Rendering Name
  {ec00951b-646c-4235-aa0f-48854202d60e}, !- Sunday Schedule:Day Name
  {c33193a4-f111-47b1-be92-962e56d24f25}, !- Monday Schedule:Day Name
  {c33193a4-f111-47b1-be92-962e56d24f25}, !- Tuesday Schedule:Day Name
  {c33193a4-f111-47b1-be92-962e56d24f25}, !- Wednesday Schedule:Day Name
  {c33193a4-f111-47b1-be92-962e56d24f25}, !- Thursday Schedule:Day Name
  {c33193a4-f111-47b1-be92-962e56d24f25}, !- Friday Schedule:Day Name
  {07cf023a-881b-4593-9eee-762af2a704b7}, !- Saturday Schedule:Day Name
  {c33193a4-f111-47b1-be92-962e56d24f25}, !- Holiday Schedule:Day Name
  {c423040d-24de-48df-92a4-79021de9d80e}, !- SummerDesignDay Schedule:Day Name
  {72fefc90-12d1-40a7-b622-825caede556d}, !- WinterDesignDay Schedule:Day Name
  {c33193a4-f111-47b1-be92-962e56d24f25}, !- CustomDay1 Schedule:Day Name
  {c33193a4-f111-47b1-be92-962e56d24f25}; !- CustomDay2 Schedule:Day Name

OS:Schedule:Day,
  {ec00951b-646c-4235-aa0f-48854202d60e}, !- Handle
  Office Bldg Light Rule 1 Day Schedule,  !- Name
  {45bcac51-f820-480e-b9c4-9be29a9d687f}, !- Schedule Type Limits Name
  ,                                       !- Interpolate to Timestep
  24,                                     !- Hour 1
  0,                                      !- Minute 1
  0.05;                                   !- Value Until Time 1

OS:Schedule:Year,