
OS:Version,
  {cdecefcf-079c-420c-87c0-bd0da5556ec6}, !- Handle
  1.13.3;                                 !- Version Identifier

OS:RunPeriod,
  {ca6e9892-90dc-423f-988e-99a6f90eaea3}, !- Handle
  Run Period 1,                           !- Name
  1,                                      !- Begin Month
  1,                                      !- Begin Day of Month
  12,                                     !- End Month
  31,                                     !- End Day of Month
  ,                                       !- Use Weather File Holidays and Special Days
  ,                                       !- Use Weather File Daylight Saving Period
  ,                                       !- Apply Weekend Holiday Rule
  ,                                       !- Use Weather File Rain Indicators
  ,                                       !- Use Weather File Snow Indicators
  ;                                       !- Number of Times Runperiod to be Repeated

OS:Timestep,
  {d4d6be4b-b0d6-45b9-9f92-856b75128924}, !- Handle
  6;                                      !- Number of Timesteps per Hour

OS:Building,
  {767ee842-bac8-4047-99a1-e6629c0ce48e}, !- Handle
  Building 1,                             !- Name
  ,                                       !- Building Sector Type
  0,                                      !- North Axis {deg}
  ,                                       !- Nominal Floor to Floor Height {m}
  ,                                       !- Space Type Name
  ,                                       !- Default Construction Set Name
  ;                                       !- Default Schedule Set Name

OS:Site,
  {0042c851-8acc-4e45-a4a7-8fe049380999}, !- Handle
  Dallas Love Field	USA,                  !- Name
  32.85,                                  !- Latitude {deg}
  -96.85,                                 !- Longitude {deg}
  -6,                                     !- Time Zone {hr}
  134,                                    !- Elevation {m}
  City;                                   !- Terrain

OS:SimulationControl,
  {b70a1338-daf5-4092-a7de-3eca32e9b880}, !- Handle
  Yes,                                    !- Do Zone Sizing Calculation
  Yes,                                    !- Do System Sizing Calculation
  Yes,                                    !- Do Plant Sizing Calculation
  No,                                     !- Run Simulation for Sizing Periods
  Yes,                                    !- Run Simulation for Weather File Run Periods
  ,                                       !- Loads Convergence Tolerance Value
  ,                                       !- Temperature Convergence Tolerance Value {deltaC}
  FullInteriorAndExteriorWithReflections; !- Solar Distribution

OS:ShadowCalculation,
  {088e94f7-348b-4adf-a200-1188e2df96bc}, !- Handle
  30,                                     !- Calculation Frequency
  3000;                                   !- Maximum Figures in Shadow Overlap Calculations

OS:Sizing:Parameters,
  {4305f436-10bc-4c3d-919c-35f93ec0f48b}, !- Handle
  1.25,                                   !- Heating Sizing Factor
  1.15;                                   !- Cooling Sizing Factor

OS:SizingPeriod:DesignDay,
  {c1efcaab-cada-4082-b104-51536a45fd69}, !- Handle
  Ann Htg 99.6% Condns DB,                !- Name
  -4,                                     !- Maximum Dry-Bulb Temperature {C}
  0,                                      !- Daily Dry-Bulb Temperature Range {deltaC}
  -4,                                     !- Humidity Indicating Conditions at Maximum Dry-Bulb
  99990,                                  !- Barometric Pressure {Pa}
  4.6,                                    !- Wind Speed {m/s}
  176,                                    !- Wind Direction {deg}
  0,                                      !- Sky Clearness
  0,                                      !- Rain Indicator
  0,                                      !- Snow Indicator
  21,                                     !- Day of Month
  2,                                      !- Month
  WinterDesignDay,                        !- Day Type
  0,                                      !- Daylight Saving Time Indicator
  Wetbulb,                                !- Humidity Indicating Type
  ,                                       !- Humidity Indicating Day Schedule Name
  DefaultMultipliers,                     !- Dry-Bulb Temperature Range Modifier Type
  ,                                       !- Dry-Bulb Temperature Range Modifier Schedule Name
  ASHRAEClearSky;                         !- Solar Model Indicator

OS:SizingPeriod:DesignDay,
  {8b8a5be0-9803-4620-b3c1-b3aba38e4154}, !- Handle
  Ann Clg .4% Condns WB=>MDB,             !- Name
  33.9,                                   !- Maximum Dry-Bulb Temperature {C}
  10.95,                                  !- Daily Dry-Bulb Temperature Range {deltaC}
  26.53,                                  !- Humidity Indicating Conditions at Maximum Dry-Bulb
  99990,                                  !- Barometric Pressure {Pa}
  5.2,                                    !- Wind Speed {m/s}
  151,                                    !- Wind Direction {deg}
  1.2,                                    !- Sky Clearness
  0,                                      !- Rain Indicator
  0,                                      !- Snow Indicator
  21,                                     !- Day of Month
  8,                                      !- Month
  SummerDesignDay,                        !- Day Type
  0,                                      !- Daylight Saving Time Indicator
  Wetbulb,                                !- Humidity Indicating Type
  ,                                       !- Humidity Indicating Day Schedule Name
  DefaultMultipliers,                     !- Dry-Bulb Temperature Range Modifier Type
  ,                                       !- Dry-Bulb Temperature Range Modifier Schedule Name
  ASHRAEClearSky;                         !- Solar Model Indicator

OS:SizingPeriod:DesignDay,
  {723fd2aa-ee8e-4c9a-9036-80ca0c7ca13a}, !- Handle
  Ann Clg .4% Condns DP=>MDB,             !- Name
  31,                                     !- Maximum Dry-Bulb Temperature {C}
  10.95,                                  !- Daily Dry-Bulb Temperature Range {deltaC}
  24,                                     !- Humidity Indicating Conditions at Maximum Dry-Bulb
  99990,                                  !- Barometric Pressure {Pa}
  5.2,                                    !- Wind Speed {m/s}
  151,                                    !- Wind Direction {deg}
  1.2,                                    !- Sky Clearness
  0,                                      !- Rain Indicator
  0,                                      !- Snow Indicator
  21,                                     !- Day of Month
  8,                                      !- Month
  SummerDesignDay,                        !- Day Type
  0,                                      !- Daylight Saving Time Indicator
  Dewpoint,                               !- Humidity Indicating Type
  ,                                       !- Humidity Indicating Day Schedule Name
  DefaultMultipliers,                     !- Dry-Bulb Temperature Range Modifier Type
  ,                                       !- Dry-Bulb Temperature Range Modifier Schedule Name
  ASHRAEClearSky;                         !- Solar Model Indicator

OS:SizingPeriod:DesignDay,
  {e0046f02-b106-4b52-b85c-10b776bee0c8}, !- Handle
  Ann Clg .4% Condns Enth=>MDB,           !- Name
  35.6,                                   !- Maximum Dry-Bulb Temperature {C}
  10.95,                                  !- Daily Dry-Bulb Temperature Range {deltaC}
  82614,                                  !- Humidity Indicating Conditions at Maximum Dry-Bulb
  99990,                                  !- Barometric Pressure {Pa}
  5.2,                                    !- Wind Speed {m/s}
  151,                                    !- Wind Direction {deg}
  1.2,                                    !- Sky Clearness
  0,                                      !- Rain Indicator
  0,                                      !- Snow Indicator
  21,                                     !- Day of Month
  8,                                      !- Month
  SummerDesignDay,                        !- Day Type
  0,                                      !- Daylight Saving Time Indicator
  Enthalpy,                               !- Humidity Indicating Type
  ,                                       !- Humidity Indicating Day Schedule Name
  DefaultMultipliers,                     !- Dry-Bulb Temperature Range Modifier Type
  ,                                       !- Dry-Bulb Temperature Range Modifier Schedule Name
  ASHRAEClearSky;                         !- Solar Model Indicator

OS:SizingPeriod:DesignDay,
  {43c14dff-b7db-4014-85b2-49f9abfde1c4}, !- Handle
  Ann Hum_n 99.6% Condns DP=>MCDB,        !- Name
  -2.2,                                   !- Maximum Dry-Bulb Temperature {C}
  0,                                      !- Daily Dry-Bulb Temperature Range {deltaC}
  -11.1,                                  !- Humidity Indicating Conditions at Maximum Dry-Bulb
  99990,                                  !- Barometric Pressure {Pa}
  4.6,                                    !- Wind Speed {m/s}
  176,                                    !- Wind Direction {deg}
  0,                                      !- Sky Clearness
  0,                                      !- Rain Indicator
  0,                                      !- Snow Indicator
  21,                                     !- Day of Month
  2,                                      !- Month
  WinterDesignDay,                        !- Day Type
  0,                                      !- Daylight Saving Time Indicator
  Dewpoint,                               !- Humidity Indicating Type
  ,                                       !- Humidity Indicating Day Schedule Name
  DefaultMultipliers,                     !- Dry-Bulb Temperature Range Modifier Type
  ,                                       !- Dry-Bulb Temperature Range Modifier Schedule Name
  ASHRAEClearSky;                         !- Solar Model Indicator

OS:SizingPeriod:DesignDay,
  {5256b12b-04c8-4330-b0f7-9c0f925cc789}, !- Handle
  Ann Clg .4% Condns DB=>MWB,             !- Name
  39,                                     !- Maximum Dry-Bulb Temperature {C}
  10.95,                                  !- Daily Dry-Bulb Temperature Range {deltaC}
  26.19,                                  !- Humidity Indicating Conditions at Maximum Dry-Bulb
  99990,                                  !- Barometric Pressure {Pa}
  5.2,                                    !- Wind Speed {m/s}
  151,                                    !- Wind Direction {deg}
  1.2,                                    !- Sky Clearness
  0,                                      !- Rain Indicator
  0,                                      !- Snow Indicator
  21,                                     !- Day of Month
  8,                                      !- Month
  SummerDesignDay,                        !- Day Type
  0,                                      !- Daylight Saving Time Indicator
  Wetbulb,                                !- Humidity Indicating Type
  ,                                       !- Humidity Indicating Day Schedule Name
  DefaultMultipliers,                     !- Dry-Bulb Temperature Range Modifier Type
  ,                                       !- Dry-Bulb Temperature Range Modifier Schedule Name
  ASHRAEClearSky;                         !- Solar Model Indicator

OS:SizingPeriod:DesignDay,
  {35b6275a-3c00-426a-806f-29318a174926}, !- Handle
  Ann Htg Wind 99.6% Condns WS=>MCDB,     !- Name
  7.3,                                    !- Maximum Dry-Bulb Temperature {C}
  0,                                      !- Daily Dry-Bulb Temperature Range {deltaC}
  7.3,                                    !- Humidity Indicating Conditions at Maximum Dry-Bulb
  99990,                                  !- Barometric Pressure {Pa}
  10.8,                                   !- Wind Speed {m/s}
  176,                                    !- Wind Direction {deg}
  0,                                      !- Sky Clearness
  0,                                      !- Rain Indicator
  0,                                      !- Snow Indicator
  21,                                     !- Day of Month
  2,                                      !- Month
  WinterDesignDay,                        !- Day Type
  0,                                      !- Daylight Saving Time Indicator
  Wetbulb,                                !- Humidity Indicating Type
  ,                                       !- Humidity Indicating Day Schedule Name
  DefaultMultipliers,                     !- Dry-Bulb Temperature Range Modifier Type
  ,                                       !- Dry-Bulb Temperature Range Modifier Schedule Name
  ASHRAEClearSky;                         !- Solar Model Indicator

OS:BuildingStory,
  {c14838a9-7a4f-4dbe-a319-bc22be297525}, !- Handle
  Building Story 1,                       !- Name
  0,                                      !- Nominal Z Coordinate {m}
  ,                                       !- Nominal Floor to Floor Height {m}
  ,                                       !- Default Construction Set Name
  ,                                       !- Default Schedule Set Name
  ;                                       !- Group Rendering Name

OS:BuildingStory,
  {1c86e34a-d7cf-4390-8129-38956673b18d}, !- Handle
  Building Story 2,                       !- Name
  0,                                      !- Nominal Z Coordinate {m}
  ,                                       !- Nominal Floor to Floor Height {m}
  ,                                       !- Default Construction Set Name
  ,                                       !- Default Schedule Set Name
  ;                                       !- Group Rendering Name

OS:BuildingStory,
  {f0d5a91d-eb24-4295-b69f-1a84ddaf157b}, !- Handle
  Building Story 3,                       !- Name
  0,                                      !- Nominal Z Coordinate {m}
  ,                                       !- Nominal Floor to Floor Height {m}
  ,                                       !- Default Construction Set Name
  ,                                       !- Default Schedule Set Name
  ;                                       !- Group Rendering Name

OS:BuildingStory,
  {07c55433-a09f-4f04-8086-209071a538bb}, !- Handle
  Building Story 4,                       !- Name
  0,                                      !- Nominal Z Coordinate {m}
  ,                                       !- Nominal Floor to Floor Height {m}
  ,                                       !- Default Construction Set Name
  ,                                       !- Default Schedule Set Name
  ;                                       !- Group Rendering Name

OS:BuildingStory,
  {3baadc07-8354-4a4f-a576-c127cabf0e9b}, !- Handle
  Building Story 5,                       !- Name
  0,                                      !- Nominal Z Coordinate {m}
  ,                                       !- Nominal Floor to Floor Height {m}
  ,                                       !- Default Construction Set Name
  ,                                       !- Default Schedule Set Name
  ;                                       !- Group Rendering Name

OS:Space,
  {b5eb507d-2042-4a2c-a7c3-c954f387d303}, !- Handle
  zone_0_space,                           !- Name
  {ad3a46d3-98c7-47c7-8e87-d8240d690034}, !- Space Type Name
  ,                                       !- Default Construction Set Name
  {37a67e05-ec6e-4bb4-9174-4abaee71f2c1}, !- Default Schedule Set Name
  ,                                       !- Direction of Relative North {deg}
  ,                                       !- X Origin {m}
  ,                                       !- Y Origin {m}
  ,                                       !- Z Origin {m}
  {3baadc07-8354-4a4f-a576-c127cabf0e9b}, !- Building Story Name
  {ab764035-1297-46ef-baec-00331bc1b54e}, !- Thermal Zone Name
  ,                                       !- Part of Total Floor Area
  {5e133337-c5ef-4744-b913-6568932dffec}; !- Design Specification Outdoor Air Object Name

OS:SpaceType,
  {ad3a46d3-98c7-47c7-8e87-d8240d690034}, !- Handle
  Office:OpenOffice;                      !- Name

OS:DefaultScheduleSet,
  {37a67e05-ec6e-4bb4-9174-4abaee71f2c1}, !- Handle
  zone_0_DefaultScheduleSet,              !- Name
  {97dc2c5b-7c2b-4050-b9c0-91de8d9bf663}, !- Hours of Operation Schedule Name
  ,                                       !- Number of People Schedule Name
  {37c551fb-d50a-48b9-b6cc-460fd1e0a137}, !- People Activity Level Schedule Name
  {c50d80ec-3b5b-44a0-acd2-0114e8c03b3b}, !- Lighting Schedule Name
  {e89f1642-8ee7-4514-a89c-bec839a137dc}, !- Electric Equipment Schedule Name
  ,                                       !- Gas Equipment Schedule Name
  ,                                       !- Hot Water Equipment Schedule Name
  {b074d66b-8368-4e28-9366-cfd29d41c753}, !- Infiltration Schedule Name
  ,                                       !- Steam Equipment Schedule Name
  ;                                       !- Other Equipment Schedule Name

OS:ScheduleTypeLimits,
  {68e95100-091d-4707-884c-d868822313ec}, !- Handle
  Schedule Type Limits 1,                 !- Name
  0,                                      !- Lower Limit Value
  1,                                      !- Upper Limit Value
  CONTINUOUS;                             !- Numeric Type

OS:Schedule:Year,
  {b074d66b-8368-4e28-9366-cfd29d41c753}, !- Handle
  Medium Office Infil Quarter On,         !- Name
  {68e95100-091d-4707-884c-d868822313ec}, !- Schedule Type Limits Name
  1,                                      !- Month 1
  3,                                      !- Day 1
  {bd099847-a716-46b6-85b4-b652bce7ad24}, !- Week Schedule Until Date 1
  12,                                     !- Month 2
  31,                                     !- Day 2
  {706d2ced-7c70-4c0b-a768-afbc58d74ddb}; !- Week Schedule Until Date 2

OS:Schedule:Week,
  {bd099847-a716-46b6-85b4-b652bce7ad24}, !- Handle
  Schedule:Week:Daily {10ec3e5a-5294-46cc-8ada-f12e209007b8}, !- Name
  ,                                       !- Schedule Rendering Name
  {2380f302-bb60-4ae3-8daf-ad5f9a41408c}, !- Sunday Schedule:Day Name
  {2380f302-bb60-4ae3-8daf-ad5f9a41408c}, !- Monday Schedule:Day Name
  {2380f302-bb60-4ae3-8daf-ad5f9a41408c}, !- Tuesday Schedule:Day Name
  {2380f302-bb60-4ae3-8daf-ad5f9a41408c}, !- Wednesday Schedule:Day Name
  {2380f302-bb60-4ae3-8daf-ad5f9a41408c}, !- Thursday Schedule:Day Name
  {2380f302-bb60-4ae3-8daf-ad5f9a41408c}, !- Friday Schedule:Day Name
  {269d7f9a-6792-4c19-8233-6402a35710b3}, !- Saturday Schedule:Day Name
  {2380f302-bb60-4ae3-8daf-ad5f9a41408c}, !- Holiday Schedule:Day Name
  {5f76e773-0155-4467-a74a-e31ddc8eabf8}, !- SummerDesignDay Schedule:Day Name
  {fdce6f60-6b50-47c4-845c-e0d5db3651e0}, !- WinterDesignDay Schedule:Day Name
  {2380f302-bb60-4ae3-8daf-ad5f9a41408c}, !- CustomDay1 Schedule:Day Name
  {2380f302-bb60-4ae3-8daf-ad5f9a41408c}; !- CustomDay2 Schedule:Day Name

OS:Schedule:Day,
  {2380f302-bb60-4ae3-8daf-ad5f9a41408c}, !- Handle
  Medium Office Infil Quarter On Default Schedule, !- Name
  {68e95100-091d-4707-884c-d868822313ec}, !- Schedule Type Limits Name
  ,                                       !- Interpolate to Timestep
  6,                                      !- Hour 1
  0,                                      !- Minute 1
  1,                                      !- Value Until Time 1
  22,                                     !- Hour 2
  0,                                      !- Minute 2
  0.25,                                   !- Value Until Time 2
  24,                                     !- Hour 3
  0,                                      !- Minute 3
  1;                                      !- Value Until Time 3

OS:Schedule:Day,
  {269d7f9a-6792-4c19-8233-6402a35710b3}, !- Handle
  Medium Office Infil Quarter On Rule 2 Day Schedule, !- Name
  {68e95100-091d-4707-884c-d868822313ec}, !- Schedule Type Limits Name
  ,                                       !- Interpolate to Timestep
  6,                                      !- Hour 1
  0,                                      !- Minute 1
  1,                                      !- Value Until Time 1
  18,                                     !- Hour 2
  0,                                      !- Minute 2
  0.25,                                   !- Value Until Time 2
  24,                                     !- Hour 3
  0,                                      !- Minute 3
  1;                                      !- Value Until Time 3

OS:Schedule:Day,
  {5f76e773-0155-4467-a74a-e31ddc8eabf8}, !- Handle
  Medium Office Infil Quarter On Summer Design Day, !- Name
  {68e95100-091d-4707-884c-d868822313ec}, !- Schedule Type Limits Name
  ,                                       !- Interpolate to Timestep
  6,                                      !- Hour 1
  0,                                      !- Minute 1
  1,                                      !- Value Until Time 1
  22,                                     !- Hour 2
  0,                                      !- Minute 2
  0.25,                                   !- Value Until Time 2
  24,                                     !- Hour 3
  0,                                      !- Minute 3
  1;                                      !- Value Until Time 3

OS:Schedule:Day,
  {fdce6f60-6b50-47c4-845c-e0d5db3651e0}, !- Handle
  Medium Office Infil Quarter On Winter Design Day, !- Name
  {68e95100-091d-4707-884c-d868822313ec}, !- Schedule Type Limits Name
  ,                                       !- Interpolate to Timestep
  6,                                      !- Hour 1
  0,                                      !- Minute 1
  1,                                      !- Value Until Time 1
  18,                                     !- Hour 2
  0,                                      !- Minute 2
  0.25,                                   !- Value Until Time 2
  24,                                     !- Hour 3
  0,                                      !- Minute 3
  1;                                      !- Value Until Time 3

OS:YearDescription,
  {51ee29f6-f1d2-439d-b89f-e85915c19e8d}; !- Handle

OS:Schedule:Week,
  {706d2ced-7c70-4c0b-a768-afbc58d74ddb}, !- Handle
  Schedule:Week:Daily {20898e88-71dc-48a1-8bf4-30a1d78b98f6}, !- Name
  ,                                       !- Schedule Rendering Name
  {4187af5e-1b0f-4f72-943e-dbbc30c0f4a1}, !- Sunday Schedule:Day Name
  {2380f302-bb60-4ae3-8daf-ad5f9a41408c}, !- Monday Schedule:Day Name
  {2380f302-bb60-4ae3-8daf-ad5f9a41408c}, !- Tuesday Schedule:Day Name
  {2380f302-bb60-4ae3-8daf-ad5f9a41408c}, !- Wednesday Schedule:Day Name
  {2380f302-bb60-4ae3-8daf-ad5f9a41408c}, !- Thursday Schedule:Day Name
  {2380f302-bb60-4ae3-8daf-ad5f9a41408c}, !- Friday Schedule:Day Name
  {269d7f9a-6792-4c19-8233-6402a35710b3}, !- Saturday Schedule:Day Name
  {2380f302-bb60-4ae3-8daf-ad5f9a41408c}, !- Holiday Schedule:Day Name
  {5f76e773-0155-4467-a74a-e31ddc8eabf8}, !- SummerDesignDay Schedule:Day Name
  {fdce6f60-6b50-47c4-845c-e0d5db3651e0}, !- WinterDesignDay Schedule:Day Name
  {2380f302-bb60-4ae3-8daf-ad5f9a41408c}, !- CustomDay1 Schedule:Day Name
  {2380f302-bb60-4ae3-8daf-ad5f9a41408c}; !- CustomDay2 Schedule:Day Name

OS:Schedule:Day,
  {4187af5e-1b0f-4f72-943e-dbbc30c0f4a1}, !- Handle
  Medium Office Infil Quarter On Rule 1 Day Schedule, !- Name
  {68e95100-091d-4707-884c-d868822313ec}, !- Schedule Type Limits Name
  ,                                       !- Interpolate to Timestep
  24,                                     !- Hour 1
  0,                                      !- Minute 1
  1;                                      !- Value Until Time 1

OS:Schedule:Year,
  {c50d80ec-3b5b-44a0-acd2-0114e8c03b3b}, !- Handle
  Office Bldg Light,                      !- Name
  {68e95100-091d-4707-884c-d868822313ec}, !- Schedule Type Limits Name
  1,                                      !- Month 1
  3,                                      !- Day 1
  {9174585f-03df-4ca2-96b7-6f84d2aa29a4}, !- Week Schedule Until Date 1
  12,                                     !- Month 2
  31,                                     !- Day 2
  {68433e89-3c13-4733-8a71-85b902d6a87d}; !- Week Schedule Until Date 2

OS:Schedule:Week,
  {9174585f-03df-4ca2-96b7-6f84d2aa29a4}, !- Handle
  Schedule:Week:Daily {77782ce5-1a70-49a7-b72d-db0988271982}, !- Name
  ,                                       !- Schedule Rendering Name
  {19d4eef5-11ad-47b9-9864-19c8fe031008}, !- Sunday Schedule:Day Name
  {19d4eef5-11ad-47b9-9864-19c8fe031008}, !- Monday Schedule:Day Name
  {19d4eef5-11ad-47b9-9864-19c8fe031008}, !- Tuesday Schedule:Day Name
  {19d4eef5-11ad-47b9-9864-19c8fe031008}, !- Wednesday Schedule:Day Name
  {19d4eef5-11ad-47b9-9864-19c8fe031008}, !- Thursday Schedule:Day Name
  {19d4eef5-11ad-47b9-9864-19c8fe031008}, !- Friday Schedule:Day Name
  {b4751be6-7033-4b57-b98b-3ea03b00aee4}, !- Saturday Schedule:Day Name
  {19d4eef5-11ad-47b9-9864-19c8fe031008}, !- Holiday Schedule:Day Name
  {bc648f71-282a-4e64-b038-b7d904375fbe}, !- SummerDesignDay Schedule:Day Name
  {f5d5ee92-08b4-4b7e-9314-8e635421f125}, !- WinterDesignDay Schedule:Day Name
  {19d4eef5-11ad-47b9-9864-19c8fe031008}, !- CustomDay1 Schedule:Day Name
  {19d4eef5-11ad-47b9-9864-19c8fe031008}; !- CustomDay2 Schedule:Day Name

OS:Schedule:Day,
  {19d4eef5-11ad-47b9-9864-19c8fe031008}, !- Handle
  Office Bldg Light Default Schedule,     !- Name
  {68e95100-091d-4707-884c-d868822313ec}, !- Schedule Type Limits Name
  ,                                       !- Interpolate to Timestep
  5,                                      !- Hour 1
  0,                                      !- Minute 1
  0.05,                                   !- Value Until Time 1
  7,                                      !- Hour 2
  0,                                      !- Minute 2
  0.1,                                    !- Value Until Time 2
  8,                                      !- Hour 3
  0,                                      !- Minute 3
  0.3,                                    !- Value Until Time 3
  17,                                     !- Hour 4
  0,                                      !- Minute 4
  0.9,                                    !- Value Until Time 4
  18,                                     !- Hour 5
  0,                                      !- Minute 5
  0.7,                                    !- Value Until Time 5
  20,                                     !- Hour 6
  0,                                      !- Minute 6
  0.5,                                    !- Value Until Time 6
  22,                                     !- Hour 7
  0,                                      !- Minute 7
  0.3,                                    !- Value Until Time 7
  23,                                     !- Hour 8
  0,                                      !- Minute 8
  0.1,                                    !- Value Until Time 8
  24,                                     !- Hour 9
  0,                                      !- Minute 9
  0.05;                                   !- Value Until Time 9

OS:Schedule:Day,
  {b4751be6-7033-4b57-b98b-3ea03b00aee4}, !- Handle
  Office Bldg Light Rule 2 Day Schedule,  !- Name
  {68e95100-091d-4707-884c-d868822313ec}, !- Schedule Type Limits Name
  ,                                       !- Interpolate to Timestep
  6,                                      !- Hour 1
  0,                                      !- Minute 1
  0.05,                                   !- Value Until Time 1
  8,                                      !- Hour 2
  0,                                      !- Minute 2
  0.1,                                    !- Value Until Time 2
  14,                                     !- Hour 3
  0,                                      !- Minute 3
  0.5,                                    !- Value Until Time 3
  17,                                     !- Hour 4
  0,                                      !- Minute 4
  0.15,                                   !- Value Until Time 4
  24,                                     !- Hour 5
  0,                                      !- Minute 5
  0.05;                                   !- Value Until Time 5

OS:Schedule:Day,
  {bc648f71-282a-4e64-b038-b7d904375fbe}, !- Handle
  Office Bldg Light Summer Design Day,    !- Name
  {68e95100-091d-4707-884c-d868822313ec}, !- Schedule Type Limits Name
  ,                                       !- Interpolate to Timestep
  24,                                     !- Hour 1
  0,                                      !- Minute 1
  1;                                      !- Value Until Time 1

OS:Schedule:Day,
  {f5d5ee92-08b4-4b7e-9314-8e635421f125}, !- Handle
  Office Bldg Light Winter Design Day,    !- Name
  {68e95100-091d-4707-884c-d868822313ec}, !- Schedule Type Limits Name
  ,                                       !- Interpolate to Timestep
  24,                                     !- Hour 1
  0,                                      !- Minute 1
  0;                                      !- Value Until Time 1

OS:Schedule:Week,
  {68433e89-3c13-4733-8a71-85b902d6a87d}, !- Handle