
OS:Version,
  {f2eceed0-e2b9-4cb5-9f80-a171890e94b2}, !- Handle
  1.13.3;                                 !- Version Identifier

OS:RunPeriod,
  {3acad712-2e44-4fd9-807c-660e112028b7}, !- Handle
  Run Period 1,                           !- Name
  1,                                      !- Begin Month
  1,                                      !- Begin Day of Month
  12,                                     !- End Month
  31,                                     !- End Day of Month
  ,                                       !- Use Weather File Holidays and Special Days
  ,                                       !- Use Weather File Daylight Saving Period
  ,                                       !- Apply Weekend Holiday Rule
  ,                                       !- Use Weather File Rain Indicators
  ,                                       !- Use Weather File Snow Indicators
  ;                                       !- Number of Times Runperiod to be Repeated

OS:Timestep,
  {4a7b9b3d-7778-4a11-8132-21b39a348f65}, !- Handle
  6;                                      !- Number of Timesteps per Hour

OS:Building,
  {d04cf0c0-5537-4b7f-986c-8d927bedc0e5}, !- Handle
  Building 1,                             !- Name
  ,                                       !- Building Sector Type
  0,                                      !- North Axis {deg}
  ,                                       !- Nominal Floor to Floor Height {m}
  ,                                       !- Space Type Name
  ,                                       !- Default Construction Set Name
  ;                                       !- Default Schedule Set Name

OS:Site,
  {189ee42f-0836-4562-b042-dd86537f83fa}, !- Handle
  Dallas Love Field	USA,                  !- Name
  32.85,                                  !- Latitude {deg}
  -96.85,                                 !- Longitude {deg}
  -6,                                     !- Time Zone {hr}
  134,                                    !- Elevation {m}
  City;                                   !- Terrain

OS:SimulationControl,
  {81e45e71-9204-490a-9fa2-a44ac28da768}, !- Handle
  Yes,                                    !- Do Zone Sizing Calculation
  Yes,                                    !- Do System Sizing Calculation
  Yes,                                    !- Do Plant Sizing Calculation
  No,                                     !- Run Simulation for Sizing Periods
  Yes,                                    !- Run Simulation for Weather File Run Periods
  ,                                       !- Loads Convergence Tolerance Value
  ,                                       !- Temperature Convergence Tolerance Value {deltaC}
  FullInteriorAndExteriorWithReflections; !- Solar Distribution

OS:ShadowCalculation,
  {f4892c6d-1bff-4044-805f-b280a3fdd1f4}, !- Handle
  30,                                     !- Calculation Frequency
  3000;                                   !- Maximum Figures in Shadow Overlap Calculations

OS:Sizing:Parameters,
  {bdcbdb9d-9138-4c07-b0fa-30f329f7fbc9}, !- Handle
  1.25,                                   !- Heating Sizing Factor
  1.15;                                   !- Cooling Sizing Factor

OS:SizingPeriod:DesignDay,
  {89970801-698f-425a-8543-870f88498b79}, !- Handle
  Ann Clg .4% Condns WB=>MDB,             !- Name
  33.9,                                   !- Maximum Dry-Bulb Temperature {C}
  10.95,                                  !- Daily Dry-Bulb Temperature Range {deltaC}
  26.53,                                  !- Humidity Indicating Conditions at Maximum Dry-Bulb
  99990,                                  !- Barometric Pressure {Pa}
  5.2,                                    !- Wind Speed {m/s}
  151,                                    !- Wind Direction {deg}
  1.2,                                    !- Sky Clearness
  0,                                      !- Rain Indicator
  0,                                      !- Snow Indicator
  21,                                     !- Day of Month
  8,                                      !- Month
  SummerDesignDay,                        !- Day Type
  0,                                      !- Daylight Saving Time Indicator
  Wetbulb,                                !- Humidity Indicating Type
  ,                                       !- Humidity Indicating Day Schedule Name
  DefaultMultipliers,                     !- Dry-Bulb Temperature Range Modifier Type
  ,                                       !- Dry-Bulb Temperature Range Modifier Schedule Name
  ASHRAEClearSky;                         !- Solar Model Indicator

OS:SizingPeriod:DesignDay,
  {5086065e-a0a5-449e-bcf2-f5f2ee3f2ddd}, !- Handle
  Ann Htg Wind 99.6% Condns WS=>MCDB,     !- Name
  7.3,                                    !- Maximum Dry-Bulb Temperature {C}
  0,                                      !- Daily Dry-Bulb Temperature Range {deltaC}
  7.3,                                    !- Humidity Indicating Conditions at Maximum Dry-Bulb
  99990,                                  !- Barometric Pressure {Pa}
  10.8,                                   !- Wind Speed {m/s}
  176,                                    !- Wind Direction {deg}
  0,                                      !- Sky Clearness
  0,                                      !- Rain Indicator
  0,                                      !- Snow Indicator
  21,                                     !- Day of Month
  2,                                      !- Month
  WinterDesignDay,                        !- Day Type
  0,                                      !- Daylight Saving Time Indicator
  Wetbulb,                                !- Humidity Indicating Type
  ,                                       !- Humidity Indicating Day Schedule Name
  DefaultMultipliers,                     !- Dry-Bulb Temperature Range Modifier Type
  ,                                       !- Dry-Bulb Temperature Range Modifier Schedule Name
  ASHRAEClearSky;                         !- Solar Model Indicator

OS:SizingPeriod:DesignDay,
  {626caa25-1ca8-43da-999a-7e9f98ce5d01}, !- Handle
  Ann Clg .4% Condns Enth=>MDB,           !- Name
  35.6,                                   !- Maximum Dry-Bulb Temperature {C}
  10.95,                                  !- Daily Dry-Bulb Temperature Range {deltaC}
  82614,                                  !- Humidity Indicating Conditions at Maximum Dry-Bulb
  99990,                                  !- Barometric Pressure {Pa}
  5.2,                                    !- Wind Speed {m/s}
  151,                                    !- Wind Direction {deg}
  1.2,                                    !- Sky Clearness
  0,                                      !- Rain Indicator
  0,                                      !- Snow Indicator
  21,                                     !- Day of Month
  8,                                      !- Month
  SummerDesignDay,                        !- Day Type
  0,                                      !- Daylight Saving Time Indicator
  Enthalpy,                               !- Humidity Indicating Type
  ,                                       !- Humidity Indicating Day Schedule Name
  DefaultMultipliers,                     !- Dry-Bulb Temperature Range Modifier Type
  ,                                       !- Dry-Bulb Temperature Range Modifier Schedule Name
  ASHRAEClearSky;                         !- Solar Model Indicator

OS:SizingPeriod:DesignDay,
  {32a440a6-d19d-4c58-9941-37edadbb32e2}, !- Handle
  Ann Clg .4% Condns DB=>MWB,             !- Name
  39,                                     !- Maximum Dry-Bulb Temperature {C}
  10.95,                                  !- Daily Dry-Bulb Temperature Range {deltaC}
  26.19,                                  !- Humidity Indicating Conditions at Maximum Dry-Bulb
  99990,                                  !- Barometric Pressure {Pa}
  5.2,                                    !- Wind Speed {m/s}
  151,                                    !- Wind Direction {deg}
  1.2,                                    !- Sky Clearness
  0,                                      !- Rain Indicator
  0,                                      !- Snow Indicator
  21,                                     !- Day of Month
  8,                                      !- Month
  SummerDesignDay,                        !- Day Type
  0,                                      !- Daylight Saving Time Indicator
  Wetbulb,                                !- Humidity Indicating Type
  ,                                       !- Humidity Indicating Day Schedule Name
  DefaultMultipliers,                     !- Dry-Bulb Temperature Range Modifier Type
  ,                                       !- Dry-Bulb Temperature Range Modifier Schedule Name
  ASHRAEClearSky;                         !- Solar Model Indicator

OS:SizingPeriod:DesignDay,
  {2f3c242e-2dc0-4a7f-9519-76aef8d61bd1}, !- Handle
  Ann Htg 99.6% Condns DB,                !- Name
  -4,                                     !- Maximum Dry-Bulb Temperature {C}
  0,                                      !- Daily Dry-Bulb Temperature Range {deltaC}
  -4,                                     !- Humidity Indicating Conditions at Maximum Dry-Bulb
  99990,                                  !- Barometric Pressure {Pa}
  4.6,                                    !- Wind Speed {m/s}
  176,                                    !- Wind Direction {deg}
  0,                                      !- Sky Clearness
  0,                                      !- Rain Indicator
  0,                                      !- Snow Indicator
  21,                                     !- Day of Month
  2,                                      !- Month
  WinterDesignDay,                        !- Day Type
  0,                                      !- Daylight Saving Time Indicator
  Wetbulb,                                !- Humidity Indicating Type
  ,                                       !- Humidity Indicating Day Schedule Name
  DefaultMultipliers,                     !- Dry-Bulb Temperature Range Modifier Type
  ,                                       !- Dry-Bulb Temperature Range Modifier Schedule Name
  ASHRAEClearSky;                         !- Solar Model Indicator

OS:SizingPeriod:DesignDay,
  {76a2034b-5e54-4675-8ed5-da6cc1d28739}, !- Handle
  Ann Hum_n 99.6% Condns DP=>MCDB,        !- Name
  -2.2,                                   !- Maximum Dry-Bulb Temperature {C}
  0,                                      !- Daily Dry-Bulb Temperature Range {deltaC}
  -11.1,                                  !- Humidity Indicating Conditions at Maximum Dry-Bulb
  99990,                                  !- Barometric Pressure {Pa}
  4.6,                                    !- Wind Speed {m/s}
  176,                                    !- Wind Direction {deg}
  0,                                      !- Sky Clearness
  0,                                      !- Rain Indicator
  0,                                      !- Snow Indicator
  21,                                     !- Day of Month
  2,                                      !- Month
  WinterDesignDay,                        !- Day Type
  0,                                      !- Daylight Saving Time Indicator
  Dewpoint,                               !- Humidity Indicating Type
  ,                                       !- Humidity Indicating Day Schedule Name
  DefaultMultipliers,                     !- Dry-Bulb Temperature Range Modifier Type
  ,                                       !- Dry-Bulb Temperature Range Modifier Schedule Name
  ASHRAEClearSky;                         !- Solar Model Indicator

OS:SizingPeriod:DesignDay,
  {44374d39-be99-443c-9192-4efc89462581}, !- Handle
  Ann Clg .4% Condns DP=>MDB,             !- Name
  31,                                     !- Maximum Dry-Bulb Temperature {C}
  10.95,                                  !- Daily Dry-Bulb Temperature Range {deltaC}
  24,                                     !- Humidity Indicating Conditions at Maximum Dry-Bulb
  99990,                                  !- Barometric Pressure {Pa}
  5.2,                                    !- Wind Speed {m/s}
  151,                                    !- Wind Direction {deg}
  1.2,                                    !- Sky Clearness
  0,                                      !- Rain Indicator
  0,                                      !- Snow Indicator
  21,                                     !- Day of Month
  8,                                      !- Month
  SummerDesignDay,                        !- Day Type
  0,                                      !- Daylight Saving Time Indicator
  Dewpoint,                               !- Humidity Indicating Type
  ,                                       !- Humidity Indicating Day Schedule Name
  DefaultMultipliers,                     !- Dry-Bulb Temperature Range Modifier Type
  ,                                       !- Dry-Bulb Temperature Range Modifier Schedule Name
  ASHRAEClearSky;                         !- Solar Model Indicator

OS:BuildingStory,
  {8b63c3e6-37e2-4b0e-b38e-8a00f497eba0}, !- Handle
  Building Story 1,                       !- Name
  0,                                      !- Nominal Z Coordinate {m}
  ,                                       !- Nominal Floor to Floor Height {m}
  ,                                       !- Default Construction Set Name
  ,                                       !- Default Schedule Set Name
  ;                                       !- Group Rendering Name

OS:BuildingStory,
  {e4ff3e30-3df0-4109-b07b-667e33bea914}, !- Handle
  Building Story 2,                       !- Name
  0,                                      !- Nominal Z Coordinate {m}
  ,                                       !- Nominal Floor to Floor Height {m}
  ,                                       !- Default Construction Set Name
  ,                                       !- Default Schedule Set Name
  ;                                       !- Group Rendering Name

OS:BuildingStory,
  {6e5044c3-7604-49e2-ab20-846c826b7c19}, !- Handle
  Building Story 3,                       !- Name
  0,                                      !- Nominal Z Coordinate {m}
  ,                                       !- Nominal Floor to Floor Height {m}
  ,                                       !- Default Construction Set Name
  ,                                       !- Default Schedule Set Name
  ;                                       !- Group Rendering Name

OS:BuildingStory,
  {54b98f90-3e5e-4aa9-a513-4d602e7b9903}, !- Handle
  Building Story 4,                       !- Name
  0,                                      !- Nominal Z Coordinate {m}
  ,                                       !- Nominal Floor to Floor Height {m}
  ,                                       !- Default Construction Set Name
  ,                                       !- Default Schedule Set Name
  ;                                       !- Group Rendering Name

OS:BuildingStory,
  {565184ab-9c87-40c2-a2e7-627626fc3e77}, !- Handle
  Building Story 5,                       !- Name
  0,                                      !- Nominal Z Coordinate {m}
  ,                                       !- Nominal Floor to Floor Height {m}
  ,                                       !- Default Construction Set Name
  ,                                       !- Default Schedule Set Name
  ;                                       !- Group Rendering Name

OS:Space,
  {3ca4a4bf-9368-42e1-a48c-88329ae660c6}, !- Handle
  zone_0_space,                           !- Name
  {e8630de3-3786-422a-a930-a93d10040841}, !- Space Type Name
  ,                                       !- Default Construction Set Name
  {5aed5fa3-a490-44d2-a1ef-9c1ceeb2089b}, !- Default Schedule Set Name
  ,                                       !- Direction of Relative North {deg}
  ,                                       !- X Origin {m}
  ,                                       !- Y Origin {m}
  ,                                       !- Z Origin {m}
  {565184ab-9c87-40c2-a2e7-627626fc3e77}, !- Building Story Name
  {ab6df902-85d0-4a7b-86e6-bf05c5f819eb}, !- Thermal Zone Name
  ,                                       !- Part of Total Floor Area
  {0d3bab37-2c38-47b5-a37c-3ba6d7c6b82f}; !- Design Specification Outdoor Air Object Name

OS:SpaceType,
  {e8630de3-3786-422a-a930-a93d10040841}, !- Handle
  Office:OpenOffice;                      !- Name

OS:DefaultScheduleSet,
  {5aed5fa3-a490-44d2-a1ef-9c1ceeb2089b}, !- Handle
  zone_0_DefaultScheduleSet,              !- Name
  {cdb52343-46fb-4bd4-8b75-78f53c4e15d0}, !- Hours of Operation Schedule Name
  ,                                       !- Number of People Schedule Name
  {e9c806d8-7819-4671-8f09-3c9681117698}, !- People Activity Level Schedule Name
  {4ac4d607-17bf-4f92-8f74-dbad708896a4}, !- Lighting Schedule Name
  {aff6fa5c-586f-472d-9ad1-7d601990a3f7}, !- Electric Equipment Schedule Name
  ,                                       !- Gas Equipment Schedule Name
  ,                                       !- Hot Water Equipment Schedule Name
  {95ae0761-5ef8-41a8-9afd-ffc0f29bd76e}, !- Infiltration Schedule Name
  ,                                       !- Steam Equipment Schedule Name
  ;                                       !- Other Equipment Schedule Name

OS:ScheduleTypeLimits,
  {5d97fc23-28ac-4e79-8380-0aca67938982}, !- Handle
  Schedule Type Limits 1,                 !- Name
  0,                                      !- Lower Limit Value
  1,                                      !- Upper Limit Value
  CONTINUOUS;                             !- Numeric Type

OS:Schedule:Year,
  {95ae0761-5ef8-41a8-9afd-ffc0f29bd76e}, !- Handle
  Medium Office Infil Quarter On,         !- Name
  {5d97fc23-28ac-4e79-8380-0aca67938982}, !- Schedule Type Limits Name
  1,                                      !- Month 1
  3,                                      !- Day 1
  {a24cf061-61b2-4c30-9797-ad9c81480a2b}, !- Week Schedule Until Date 1
  12,                                     !- Month 2
  31,                                     !- Day 2
  {86394b37-d97a-4ecd-988d-ffb1015a5319}; !- Week Schedule Until Date 2

OS:Schedule:Week,
  {a24cf061-61b2-4c30-9797-ad9c81480a2b}, !- Handle
  Schedule:Week:Daily {10ec3e5a-5294-46cc-8ada-f12e209007b8}, !- Name
  ,                                       !- Schedule Rendering Name
  {3fe7c86d-a29b-4cf5-b28d-705e9b024a11}, !- Sunday Schedule:Day Name
  {3fe7c86d-a29b-4cf5-b28d-705e9b024a11}, !- Monday Schedule:Day Name
  {3fe7c86d-a29b-4cf5-b28d-705e9b024a11}, !- Tuesday Schedule:Day Name
  {3fe7c86d-a29b-4cf5-b28d-705e9b024a11}, !- Wednesday Schedule:Day Name
  {3fe7c86d-a29b-4cf5-b28d-705e9b024a11}, !- Thursday Schedule:Day Name
  {3fe7c86d-a29b-4cf5-b28d-705e9b024a11}, !- Friday Schedule:Day Name
  {709d276b-8ae1-40e9-ba43-d46e71ef05e7}, !- Saturday Schedule:Day Name
  {3fe7c86d-a29b-4cf5-b28d-705e9b024a11}, !- Holiday Schedule:Day Name
  {04dfb93e-1507-4f09-873f-5d34a3f82794}, !- SummerDesignDay Schedule:Day Name
  {56e71ed4-aa16-4e5d-a391-9bac529d8143}, !- WinterDesignDay Schedule:Day Name
  {3fe7c86d-a29b-4cf5-b28d-705e9b024a11}, !- CustomDay1 Schedule:Day Name
  {3fe7c86d-a29b-4cf5-b28d-705e9b024a11}; !- CustomDay2 Schedule:Day Name

OS:Schedule:Day,
  {3fe7c86d-a29b-4cf5-b28d-705e9b024a11}, !- Handle
  Medium Office Infil Quarter On Default Schedule, !- Name
  {5d97fc23-28ac-4e79-8380-0aca67938982}, !- Schedule Type Limits Name
  ,                                       !- Interpolate to Timestep
  6,                                      !- Hour 1
  0,                                      !- Minute 1
  1,                                      !- Value Until Time 1
  22,                                     !- Hour 2
  0,                                      !- Minute 2
  0.25,                                   !- Value Until Time 2
  24,                                     !- Hour 3
  0,                                      !- Minute 3
  1;                                      !- Value Until Time 3

OS:Schedule:Day,
  {709d276b-8ae1-40e9-ba43-d46e71ef05e7}, !- Handle
  Medium Office Infil Quarter On Rule 2 Day Schedule, !- Name
  {5d97fc23-28ac-4e79-8380-0aca67938982}, !- Schedule Type Limits Name
  ,                                       !- Interpolate to Timestep
  6,                                      !- Hour 1
  0,                                      !- Minute 1
  1,                                      !- Value Until Time 1
  18,                                     !- Hour 2
  0,                                      !- Minute 2
  0.25,                                   !- Value Until Time 2
  24,                                     !- Hour 3
  0,                                      !- Minute 3
  1;                                      !- Value Until Time 3

OS:Schedule:Day,
  {04dfb93e-1507-4f09-873f-5d34a3f82794}, !- Handle
  Medium Office Infil Quarter On Summer Design Day, !- Name
  {5d97fc23-28ac-4e79-8380-0aca67938982}, !- Schedule Type Limits Name
  ,                                       !- Interpolate to Timestep
  6,                                      !- Hour 1
  0,                                      !- Minute 1
  1,                                      !- Value Until Time 1
  22,                                     !- Hour 2
  0,                                      !- Minute 2
  0.25,                                   !- Value Until Time 2
  24,                                     !- Hour 3
  0,                                      !- Minute 3
  1;                                      !- Value Until Time 3

OS:Schedule:Day,
  {56e71ed4-aa16-4e5d-a391-9bac529d8143}, !- Handle
  Medium Office Infil Quarter On Winter Design Day, !- Name
  {5d97fc23-28ac-4e79-8380-0aca67938982}, !- Schedule Type Limits Name
  ,                                       !- Interpolate to Timestep
  6,                                      !- Hour 1
  0,                                      !- Minute 1
  1,                                      !- Value Until Time 1
  18,                                     !- Hour 2
  0,                                      !- Minute 2
  0.25,                                   !- Value Until Time 2
  24,                                     !- Hour 3
  0,                                      !- Minute 3
  1;                                      !- Value Until Time 3

OS:YearDescription,
  {77135a91-e7a7-4b09-96f1-14c65c48db18}; !- Handle

OS:Schedule:Week,
  {86394b37-d97a-4ecd-988d-ffb1015a5319}, !- Handle
  Schedule:Week:Daily {20898e88-71dc-48a1-8bf4-30a1d78b98f6}, !- Name
  ,                                       !- Schedule Rendering Name
  {fb5e8cee-64a6-4b7f-a624-11725d684600}, !- Sunday Schedule:Day Name
  {3fe7c86d-a29b-4cf5-b28d-705e9b024a11}, !- Monday Schedule:Day Name
  {3fe7c86d-a29b-4cf5-b28d-705e9b024a11}, !- Tuesday Schedule:Day Name
  {3fe7c86d-a29b-4cf5-b28d-705e9b024a11}, !- Wednesday Schedule:Day Name
  {3fe7c86d-a29b-4cf5-b28d-705e9b024a11}, !- Thursday Schedule:Day Name
  {3fe7c86d-a29b-4cf5-b28d-705e9b024a11}, !- Friday Schedule:Day Name
  {709d276b-8ae1-40e9-ba43-d46e71ef05e7}, !- Saturday Schedule:Day Name
  {3fe7c86d-a29b-4cf5-b28d-705e9b024a11}, !- Holiday Schedule:Day Name
  {04dfb93e-1507-4f09-873f-5d34a3f82794}, !- SummerDesignDay Schedule:Day Name
  {56e71ed4-aa16-4e5d-a391-9bac529d8143}, !- WinterDesignDay Schedule:Day Name
  {3fe7c86d-a29b-4cf5-b28d-705e9b024a11}, !- CustomDay1 Schedule:Day Name
  {3fe7c86d-a29b-4cf5-b28d-705e9b024a11}; !- CustomDay2 Schedule:Day Name

OS:Schedule:Day,
  {fb5e8cee-64a6-4b7f-a624-11725d684600}, !- Handle
  Medium Office Infil Quarter On Rule 1 Day Schedule, !- Name
  {5d97fc23-28ac-4e79-8380-0aca67938982}, !- Schedule Type Limits Name
  ,                                       !- Interpolate to Timestep
  24,                                     !- Hour 1
  0,                                      !- Minute 1
  1;                                      !- Value Until Time 1

OS:Schedule:Year,
  {4ac4d607-17bf-4f92-8f74-dbad708896a4}, !- Handle
  Office Bldg Light,                      !- Name
  {5d97fc23-28ac-4e79-8380-0aca67938982}, !- Schedule Type Limits Name
  1,                                      !- Month 1
  3,                                      !- Day 1
  {661692db-0a7e-4df0-aa2f-98d538367117}, !- Week Schedule Until Date 1
  12,                                     !- Month 2
  31,                                     !- Day 2
  {aa9379a9-e6d1-4df3-a6c4-31e670bd4fde}; !- Week Schedule Until Date 2

OS:Schedule:Week,
  {661692db-0a7e-4df0-aa2f-98d538367117}, !- Handle
  Schedule:Week:Daily {77782ce5-1a70-49a7-b72d-db0988271982}, !- Name
  ,                                       !- Schedule Rendering Name
  {b42d718b-c2af-4bc4-ba48-e27ae8ac8c6f}, !- Sunday Schedule:Day Name
  {b42d718b-c2af-4bc4-ba48-e27ae8ac8c6f}, !- Monday Schedule:Day Name
  {b42d718b-c2af-4bc4-ba48-e27ae8ac8c6f}, !- Tuesday Schedule:Day Name
  {b42d718b-c2af-4bc4-ba48-e27ae8ac8c6f}, !- Wednesday Schedule:Day Name
  {b42d718b-c2af-4bc4-ba48-e27ae8ac8c6f}, !- Thursday Schedule:Day Name
  {b42d718b-c2af-4bc4-ba48-e27ae8ac8c6f}, !- Friday Schedule:Day Name
  {ed1dc7ef-a85e-4242-9a68-42f7bd406b66}, !- Saturday Schedule:Day Name
  {b42d718b-c2af-4bc4-ba48-e27ae8ac8c6f}, !- Holiday Schedule:Day Name
  {d87e0f4e-2662-4029-8650-8bd26d3d948c}, !- SummerDesignDay Schedule:Day Name
  {0b0e3d60-72d8-4e5f-9f9c-262879c02d51}, !- WinterDesignDay Schedule:Day Name
  {b42d718b-c2af-4bc4-ba48-e27ae8ac8c6f}, !- CustomDay1 Schedule:Day Name
  {b42d718b-c2af-4bc4-ba48-e27ae8ac8c6f}; !- CustomDay2 Schedule:Day Name

OS:Schedule:Day,
  {b42d718b-c2af-4bc4-ba48-e27ae8ac8c6f}, !- Handle
  Office Bldg Light Default Schedule,     !- Name
  {5d97fc23-28ac-4e79-8380-0aca67938982}, !- Schedule Type Limits Name
  ,                                       !- Interpolate to Timestep
  5,                                      !- Hour 1
  0,                                      !- Minute 1
  0.05,                                   !- Value Until Time 1
  7,                                      !- Hour 2
  0,                                      !- Minute 2
  0.1,                                    !- Value Until Time 2
  8,                                      !- Hour 3
  0,                                      !- Minute 3
  0.3,                                    !- Value Until Time 3
  17,                                     !- Hour 4
  0,                                      !- Minute 4
  0.9,                                    !- Value Until Time 4
  18,                                     !- Hour 5
  0,                                      !- Minute 5
  0.7,                                    !- Value Until Time 5
  20,                                     !- Hour 6
  0,                                      !- Minute 6
  0.5,                                    !- Value Until Time 6
  22,                                     !- Hour 7
  0,                                      !- Minute 7
  0.3,                                    !- Value Until Time 7
  23,                                     !- Hour 8
  0,                                      !- Minute 8
  0.1,                                    !- Value Until Time 8
  24,                                     !- Hour 9
  0,                                      !- Minute 9
  0.05;                                   !- Value Until Time 9

OS:Schedule:Day,
  {ed1dc7ef-a85e-4242-9a68-42f7bd406b66}, !- Handle
  Office Bldg Light Rule 2 Day Schedule,  !- Name
  {5d97fc23-28ac-4e79-8380-0aca67938982}, !- Schedule Type Limits Name
  ,                                       !- Interpolate to Timestep
  6,                                      !- Hour 1
  0,                                      !- Minute 1
  0.05,                                   !- Value Until Time 1
  8,                                      !- Hour 2
  0,                                      !- Minute 2
  0.1,                                    !- Value Until Time 2
  14,                                     !- Hour 3
  0,                                      !- Minute 3
  0.5,                                    !- Value Until Time 3
  17,                                     !- Hour 4
  0,                                      !- Minute 4
  0.15,                                   !- Value Until Time 4
  24,                                     !- Hour 5
  0,                                      !- Minute 5
  0.05;                                   !- Value Until Time 5

OS:Schedule:Day,
  {d87e0f4e-2662-4029-8650-8bd26d3d948c}, !- Handle
  Office Bldg Light Summer Design Day,    !- Name
  {5d97fc23-28ac-4e79-8380-0aca67938982}, !- Schedule Type Limits Name
  ,                                       !- Interpolate to Timestep
  24,                                     !- Hour 1
  0,                                      !- Minute 1
  1;                                      !- Value Until Time 1

OS:Schedule:Day,
  {0b0e3d60-72d8-4e5f-9f9c-262879c02d51}, !- Handle
  Office Bldg Light Winter Design Day,    !- Name
  {5d97fc23-28ac-4e79-8380-0aca67938982}, !- Schedule Type Limits Name
  ,                                       !- Interpolate to Timestep
  24,                                     !- Hour 1
  0,                                      !- Minute 1
  0;                                      !- Value Until Time 1

OS:Schedule:Week,
  {aa9379a9-e6d1-4df3-a6c4-31e670bd4fde}, !- Handle