
OS:Version,
  {d699f663-7a4a-44a6-a368-78ad441d1538}, !- Handle
  2.1.0;                                  !- Version Identifier

OS:RunPeriod,
  {f88c6c78-04ed-47c2-b8db-f7e6144fb764}, !- Handle
  Run Period 1,                           !- Name
  1,                                      !- Begin Month
  1,                                      !- Begin Day of Month
  12,                                     !- End Month
  31,                                     !- End Day of Month
  ,                                       !- Use Weather File Holidays and Special Days
  ,                                       !- Use Weather File Daylight Saving Period
  ,                                       !- Apply Weekend Holiday Rule
  ,                                       !- Use Weather File Rain Indicators
  ,                                       !- Use Weather File Snow Indicators
  ;                                       !- Number of Times Runperiod to be Repeated

OS:Timestep,
  {511666e9-8285-4002-8595-89854af76e76}, !- Handle
  6;                                      !- Number of Timesteps per Hour

OS:Building,
  {35ad629b-c330-425d-9fd0-3779f1e19325}, !- Handle
  Building 1,                             !- Name
  ,                                       !- Building Sector Type
  0,                                      !- North Axis {deg}
  ,                                       !- Nominal Floor to Floor Height {m}
  ,                                       !- Space Type Name
  ,                                       !- Default Construction Set Name
  ;                                       !- Default Schedule Set Name

OS:Site,
  {4bdeb1a7-2d45-4f18-87a0-fcba81816233}, !- Handle
  Denver Intl Ap,                         !- Name
  39.83,                                  !- Latitude {deg}
  -104.65,                                !- Longitude {deg}
  -7,                                     !- Time Zone {hr}
  1650,                                   !- Elevation {m}
  City;                                   !- Terrain

OS:SimulationControl,
  {4fa1d3b8-12f0-45f1-a1cb-2be9982d130b}, !- Handle
  Yes,                                    !- Do Zone Sizing Calculation
  Yes,                                    !- Do System Sizing Calculation
  Yes,                                    !- Do Plant Sizing Calculation
  No,                                     !- Run Simulation for Sizing Periods
  Yes,                                    !- Run Simulation for Weather File Run Periods
  ,                                       !- Loads Convergence Tolerance Value
  ,                                       !- Temperature Convergence Tolerance Value {deltaC}
  FullInteriorAndExteriorWithReflections; !- Solar Distribution

OS:ShadowCalculation,
  {bc82fac6-9d29-448e-a7da-1df2ab2818ad}, !- Handle
  30,                                     !- Calculation Frequency
  3000;                                   !- Maximum Figures in Shadow Overlap Calculations

OS:Sizing:Parameters,
  {a3ace54f-dae4-488d-8795-bc6d2d874309}, !- Handle
  1.25,                                   !- Heating Sizing Factor
  1.15;                                   !- Cooling Sizing Factor

OS:SizingPeriod:DesignDay,
  {91350f5b-9c6f-4971-a3a5-2ff5c1adea60}, !- Handle
  Ann Clg .4% Condns DP=>MDB,             !- Name
  32.8,                                   !- Maximum Dry-Bulb Temperature {C}
  10.6,                                   !- Daily Dry-Bulb Temperature Range {deltaC}
  23.3,                                   !- Humidity Indicating Conditions at Maximum Dry-Bulb
  99188,                                  !- Barometric Pressure {Pa}
  6.2,                                    !- Wind Speed {m/s}
  191,                                    !- Wind Direction {deg}
  1.2,                                    !- Sky Clearness
  0,                                      !- Rain Indicator
  0,                                      !- Snow Indicator
  21,                                     !- Day of Month
  7,                                      !- Month
  SummerDesignDay,                        !- Day Type
  0,                                      !- Daylight Saving Time Indicator
  Dewpoint,                               !- Humidity Indicating Type
  ,                                       !- Humidity Indicating Day Schedule Name
  DefaultMultipliers,                     !- Dry-Bulb Temperature Range Modifier Type
  ,                                       !- Dry-Bulb Temperature Range Modifier Schedule Name
  ASHRAEClearSky;                         !- Solar Model Indicator

OS:SizingPeriod:DesignDay,
  {b65c8b05-dac7-429c-8894-ee44c4949b7c}, !- Handle
  Ann Clg .4% Condns DB=>MWB,             !- Name
  32.2,                                   !- Maximum Dry-Bulb Temperature {C}
  10.6,                                   !- Daily Dry-Bulb Temperature Range {deltaC}
  25.441,                                 !- Humidity Indicating Conditions at Maximum Dry-Bulb
  99188,                                  !- Barometric Pressure {Pa}
  6.2,                                    !- Wind Speed {m/s}
  191,                                    !- Wind Direction {deg}
  1.2,                                    !- Sky Clearness
  0,                                      !- Rain Indicator
  0,                                      !- Snow Indicator
  21,                                     !- Day of Month
  7,                                      !- Month
  SummerDesignDay,                        !- Day Type
  0,                                      !- Daylight Saving Time Indicator
  Wetbulb,                                !- Humidity Indicating Type
  ,                                       !- Humidity Indicating Day Schedule Name
  DefaultMultipliers,                     !- Dry-Bulb Temperature Range Modifier Type
  ,                                       !- Dry-Bulb Temperature Range Modifier Schedule Name
  ASHRAEClearSky;                         !- Solar Model Indicator

OS:SizingPeriod:DesignDay,
  {1b9da37a-be52-423b-820f-6d9dc8a3b607}, !- Handle
  Ann Htg Wind 99.6% Condns WS=>MCDB,     !- Name
  -2.2,                                   !- Maximum Dry-Bulb Temperature {C}
  0,                                      !- Daily Dry-Bulb Temperature Range {deltaC}
  -2.2,                                   !- Humidity Indicating Conditions at Maximum Dry-Bulb
  99188,                                  !- Barometric Pressure {Pa}
  12.4,                                   !- Wind Speed {m/s}
  241,                                    !- Wind Direction {deg}
  0,                                      !- Sky Clearness
  0,                                      !- Rain Indicator
  0,                                      !- Snow Indicator
  21,                                     !- Day of Month
  1,                                      !- Month
  WinterDesignDay,                        !- Day Type
  0,                                      !- Daylight Saving Time Indicator
  Wetbulb,                                !- Humidity Indicating Type
  ,                                       !- Humidity Indicating Day Schedule Name
  DefaultMultipliers,                     !- Dry-Bulb Temperature Range Modifier Type
  ,                                       !- Dry-Bulb Temperature Range Modifier Schedule Name
  ASHRAEClearSky;                         !- Solar Model Indicator

OS:SizingPeriod:DesignDay,
  {388e03ec-cd66-43f0-8033-60a18667478a}, !- Handle
  Ann Htg 99.6% Condns DB,                !- Name
  -20,                                    !- Maximum Dry-Bulb Temperature {C}
  0,                                      !- Daily Dry-Bulb Temperature Range {deltaC}
  -20,                                    !- Humidity Indicating Conditions at Maximum Dry-Bulb
  99188,                                  !- Barometric Pressure {Pa}
  5.2,                                    !- Wind Speed {m/s}
  241,                                    !- Wind Direction {deg}
  0,                                      !- Sky Clearness
  0,                                      !- Rain Indicator
  0,                                      !- Snow Indicator
  21,                                     !- Day of Month
  1,                                      !- Month
  WinterDesignDay,                        !- Day Type
  0,                                      !- Daylight Saving Time Indicator
  Wetbulb,                                !- Humidity Indicating Type
  ,                                       !- Humidity Indicating Day Schedule Name
  DefaultMultipliers,                     !- Dry-Bulb Temperature Range Modifier Type
  ,                                       !- Dry-Bulb Temperature Range Modifier Schedule Name
  ASHRAEClearSky;                         !- Solar Model Indicator

OS:SizingPeriod:DesignDay,
  {cafdd67e-1ce5-47fc-b1fc-3cdebae6c060}, !- Handle
  Ann Hum_n 99.6% Condns DP=>MCDB,        !- Name
  -17.8,                                  !- Maximum Dry-Bulb Temperature {C}
  0,                                      !- Daily Dry-Bulb Temperature Range {deltaC}
  -26.7,                                  !- Humidity Indicating Conditions at Maximum Dry-Bulb
  99188,                                  !- Barometric Pressure {Pa}
  5.2,                                    !- Wind Speed {m/s}
  241,                                    !- Wind Direction {deg}
  0,                                      !- Sky Clearness
  0,                                      !- Rain Indicator
  0,                                      !- Snow Indicator
  21,                                     !- Day of Month
  1,                                      !- Month
  WinterDesignDay,                        !- Day Type
  0,                                      !- Daylight Saving Time Indicator
  Dewpoint,                               !- Humidity Indicating Type
  ,                                       !- Humidity Indicating Day Schedule Name
  DefaultMultipliers,                     !- Dry-Bulb Temperature Range Modifier Type
  ,                                       !- Dry-Bulb Temperature Range Modifier Schedule Name
  ASHRAEClearSky;                         !- Solar Model Indicator

OS:SizingPeriod:DesignDay,
  {c411eec5-2d3b-4239-87ac-967e39be1465}, !- Handle
  Ann Clg .4% Condns WB=>MDB,             !- Name
  31.7,                                   !- Maximum Dry-Bulb Temperature {C}
  10.6,                                   !- Daily Dry-Bulb Temperature Range {deltaC}
  25.54,                                  !- Humidity Indicating Conditions at Maximum Dry-Bulb
  99188,                                  !- Barometric Pressure {Pa}
  6.2,                                    !- Wind Speed {m/s}
  191,                                    !- Wind Direction {deg}
  1.2,                                    !- Sky Clearness
  0,                                      !- Rain Indicator
  0,                                      !- Snow Indicator
  21,                                     !- Day of Month
  7,                                      !- Month
  SummerDesignDay,                        !- Day Type
  0,                                      !- Daylight Saving Time Indicator
  Wetbulb,                                !- Humidity Indicating Type
  ,                                       !- Humidity Indicating Day Schedule Name
  DefaultMultipliers,                     !- Dry-Bulb Temperature Range Modifier Type
  ,                                       !- Dry-Bulb Temperature Range Modifier Schedule Name
  ASHRAEClearSky;                         !- Solar Model Indicator

OS:SizingPeriod:DesignDay,
  {fee63166-673f-4629-8a11-789d6567fbd8}, !- Handle
  Ann Clg .4% Condns Enth=>MDB,           !- Name
  31.7,                                   !- Maximum Dry-Bulb Temperature {C}
  10.6,                                   !- Daily Dry-Bulb Temperature Range {deltaC}
  78779,                                  !- Humidity Indicating Conditions at Maximum Dry-Bulb
  99188,                                  !- Barometric Pressure {Pa}
  6.2,                                    !- Wind Speed {m/s}
  191,                                    !- Wind Direction {deg}
  1.2,                                    !- Sky Clearness
  0,                                      !- Rain Indicator
  0,                                      !- Snow Indicator
  21,                                     !- Day of Month
  7,                                      !- Month
  SummerDesignDay,                        !- Day Type
  0,                                      !- Daylight Saving Time Indicator
  Enthalpy,                               !- Humidity Indicating Type
  ,                                       !- Humidity Indicating Day Schedule Name
  DefaultMultipliers,                     !- Dry-Bulb Temperature Range Modifier Type
  ,                                       !- Dry-Bulb Temperature Range Modifier Schedule Name
  ASHRAEClearSky;                         !- Solar Model Indicator

OS:BuildingStory,
  {7aa40fde-e8fc-4ac2-8d7f-e1cf1bea3c4f}, !- Handle
  Building Story 1,                       !- Name
  0,                                      !- Nominal Z Coordinate {m}
  ,                                       !- Nominal Floor to Floor Height {m}
  ,                                       !- Default Construction Set Name
  ,                                       !- Default Schedule Set Name
  ;                                       !- Group Rendering Name

OS:BuildingStory,
  {27e2e3f0-68e5-4329-a9b4-331852be0726}, !- Handle
  Building Story 2,                       !- Name
  3,                                      !- Nominal Z Coordinate {m}
  ,                                       !- Nominal Floor to Floor Height {m}
  ,                                       !- Default Construction Set Name
  ,                                       !- Default Schedule Set Name
  ;                                       !- Group Rendering Name

OS:BuildingStory,
  {55eff8bb-8c1a-44d1-b269-aa4d2baaf2eb}, !- Handle
  Building Story 3,                       !- Name
  6,                                      !- Nominal Z Coordinate {m}
  ,                                       !- Nominal Floor to Floor Height {m}
  ,                                       !- Default Construction Set Name
  ,                                       !- Default Schedule Set Name
  ;                                       !- Group Rendering Name

OS:Space,
  {00b7ffaa-a033-4b3e-bbd8-53a8c074324b}, !- Handle
  zone_0_space,                           !- Name
  {319540db-df88-412f-841c-427f8ff77cca}, !- Space Type Name
  ,                                       !- Default Construction Set Name
  {2555903b-0dcd-4d8b-9954-537856264178}, !- Default Schedule Set Name
  ,                                       !- Direction of Relative North {deg}
  ,                                       !- X Origin {m}
  ,                                       !- Y Origin {m}
  ,                                       !- Z Origin {m}
  {55eff8bb-8c1a-44d1-b269-aa4d2baaf2eb}, !- Building Story Name
  {e3a468cb-77c8-4ff9-9884-eb5b7883e70c}, !- Thermal Zone Name
  ,                                       !- Part of Total Floor Area
  {6e4e72b2-a2c9-4cd3-8404-73443789f130}; !- Design Specification Outdoor Air Object Name

OS:SpaceType,
  {319540db-df88-412f-841c-427f8ff77cca}, !- Handle
  Office:OpenOffice,                      !- Name
  ,                                       !- Default Construction Set Name
  ,                                       !- Default Schedule Set Name
  {eb716e6c-daa8-4b57-ba82-8122d6d79e0d}; !- Group Rendering Name

OS:DefaultScheduleSet,
  {2555903b-0dcd-4d8b-9954-537856264178}, !- Handle
  zone_0_DefaultScheduleSet,              !- Name
  {bfcc3e67-95d2-4f96-a7f0-90e526ea7d90}, !- Hours of Operation Schedule Name
  ,                                       !- Number of People Schedule Name
  {c6cd7713-fbdb-4080-85f2-6a11c7de87b7}, !- People Activity Level Schedule Name
  {5b186c55-944b-4af6-ab71-f6b71902b2c9}, !- Lighting Schedule Name
  {91e0e2a9-85f5-406a-8bf6-c12ff4e4f914}, !- Electric Equipment Schedule Name
  ,                                       !- Gas Equipment Schedule Name
  ,                                       !- Hot Water Equipment Schedule Name
  {0bbaad94-5bdc-4daf-bb00-c421c70774d7}, !- Infiltration Schedule Name
  ,                                       !- Steam Equipment Schedule Name
  ;                                       !- Other Equipment Schedule Name

OS:ScheduleTypeLimits,
  {9789e075-c279-4723-a02e-6a163527ba7f}, !- Handle
  Schedule Type Limits 1,                 !- Name
  0,                                      !- Lower Limit Value
  1,                                      !- Upper Limit Value
  CONTINUOUS;                             !- Numeric Type

OS:Schedule:Year,
  {0bbaad94-5bdc-4daf-bb00-c421c70774d7}, !- Handle
  Medium Office Infil Quarter On,         !- Name
  {9789e075-c279-4723-a02e-6a163527ba7f}, !- Schedule Type Limits Name
  1,                                      !- Month 1
  3,                                      !- Day 1
  {f4f1bfed-d36d-4b81-a0ee-eabe507f1c0e}, !- Week Schedule Until Date 1
  12,                                     !- Month 2
  31,                                     !- Day 2
  {4f1c3a50-a80c-4b01-9262-22bb97cd2ca5}; !- Week Schedule Until Date 2

OS:Schedule:Week,
  {f4f1bfed-d36d-4b81-a0ee-eabe507f1c0e}, !- Handle
  Schedule:Week:Daily {10ec3e5a-5294-46cc-8ada-f12e209007b8}, !- Name
  ,                                       !- Schedule Rendering Name
  {52ed7594-f0fc-486f-b844-950703ae9387}, !- Sunday Schedule:Day Name
  {52ed7594-f0fc-486f-b844-950703ae9387}, !- Monday Schedule:Day Name
  {52ed7594-f0fc-486f-b844-950703ae9387}, !- Tuesday Schedule:Day Name
  {52ed7594-f0fc-486f-b844-950703ae9387}, !- Wednesday Schedule:Day Name
  {52ed7594-f0fc-486f-b844-950703ae9387}, !- Thursday Schedule:Day Name
  {52ed7594-f0fc-486f-b844-950703ae9387}, !- Friday Schedule:Day Name
  {1866865c-84cf-4b86-a1f8-122a04e59baf}, !- Saturday Schedule:Day Name
  {52ed7594-f0fc-486f-b844-950703ae9387}, !- Holiday Schedule:Day Name
  {ff77244a-e675-41f2-9e68-c8de9023170d}, !- SummerDesignDay Schedule:Day Name
  {2bebca41-9495-477d-8b40-8fa425a00267}, !- WinterDesignDay Schedule:Day Name
  {52ed7594-f0fc-486f-b844-950703ae9387}, !- CustomDay1 Schedule:Day Name
  {52ed7594-f0fc-486f-b844-950703ae9387}; !- CustomDay2 Schedule:Day Name

OS:Schedule:Day,
  {52ed7594-f0fc-486f-b844-950703ae9387}, !- Handle
  Medium Office Infil Quarter On Default Schedule, !- Name
  {9789e075-c279-4723-a02e-6a163527ba7f}, !- Schedule Type Limits Name
  ,                                       !- Interpolate to Timestep
  6,                                      !- Hour 1
  0,                                      !- Minute 1
  1,                                      !- Value Until Time 1
  22,                                     !- Hour 2
  0,                                      !- Minute 2
  0.25,                                   !- Value Until Time 2
  24,                                     !- Hour 3
  0,                                      !- Minute 3
  1;                                      !- Value Until Time 3

OS:Schedule:Day,
  {1866865c-84cf-4b86-a1f8-122a04e59baf}, !- Handle
  Medium Office Infil Quarter On Rule 2 Day Schedule, !- Name
  {9789e075-c279-4723-a02e-6a163527ba7f}, !- Schedule Type Limits Name
  ,                                       !- Interpolate to Timestep
  6,                                      !- Hour 1
  0,                                      !- Minute 1
  1,                                      !- Value Until Time 1
  18,                                     !- Hour 2
  0,                                      !- Minute 2
  0.25,                                   !- Value Until Time 2
  24,                                     !- Hour 3
  0,                                      !- Minute 3
  1;                                      !- Value Until Time 3

OS:Schedule:Day,
  {ff77244a-e675-41f2-9e68-c8de9023170d}, !- Handle
  Medium Office Infil Quarter On Summer Design Day, !- Name
  {9789e075-c279-4723-a02e-6a163527ba7f}, !- Schedule Type Limits Name
  ,                                       !- Interpolate to Timestep
  6,                                      !- Hour 1
  0,                                      !- Minute 1
  1,                                      !- Value Until Time 1
  22,                                     !- Hour 2
  0,                                      !- Minute 2
  0.25,                                   !- Value Until Time 2
  24,                                     !- Hour 3
  0,                                      !- Minute 3
  1;                                      !- Value Until Time 3

OS:Schedule:Day,
  {2bebca41-9495-477d-8b40-8fa425a00267}, !- Handle
  Medium Office Infil Quarter On Winter Design Day, !- Name
  {9789e075-c279-4723-a02e-6a163527ba7f}, !- Schedule Type Limits Name
  ,                                       !- Interpolate to Timestep
  6,                                      !- Hour 1
  0,                                      !- Minute 1
  1,                                      !- Value Until Time 1
  18,                                     !- Hour 2
  0,                                      !- Minute 2
  0.25,                                   !- Value Until Time 2
  24,                                     !- Hour 3
  0,                                      !- Minute 3
  1;                                      !- Value Until Time 3

OS:YearDescription,
  {a16efaee-0c2f-417d-a42d-ae80f155c34c}, !- Handle
  ,                                       !- Calendar Year
  Sunday;                                 !- Day of Week for Start Day

OS:Schedule:Week,
  {4f1c3a50-a80c-4b01-9262-22bb97cd2ca5}, !- Handle
  Schedule:Week:Daily {20898e88-71dc-48a1-8bf4-30a1d78b98f6}, !- Name
  ,                                       !- Schedule Rendering Name
  {112f4094-cb02-41ee-9d81-c9f30c1d2207}, !- Sunday Schedule:Day Name
  {52ed7594-f0fc-486f-b844-950703ae9387}, !- Monday Schedule:Day Name
  {52ed7594-f0fc-486f-b844-950703ae9387}, !- Tuesday Schedule:Day Name
  {52ed7594-f0fc-486f-b844-950703ae9387}, !- Wednesday Schedule:Day Name
  {52ed7594-f0fc-486f-b844-950703ae9387}, !- Thursday Schedule:Day Name
  {52ed7594-f0fc-486f-b844-950703ae9387}, !- Friday Schedule:Day Name
  {1866865c-84cf-4b86-a1f8-122a04e59baf}, !- Saturday Schedule:Day Name
  {52ed7594-f0fc-486f-b844-950703ae9387}, !- Holiday Schedule:Day Name
  {ff77244a-e675-41f2-9e68-c8de9023170d}, !- SummerDesignDay Schedule:Day Name
  {2bebca41-9495-477d-8b40-8fa425a00267}, !- WinterDesignDay Schedule:Day Name
  {52ed7594-f0fc-486f-b844-950703ae9387}, !- CustomDay1 Schedule:Day Name
  {52ed7594-f0fc-486f-b844-950703ae9387}; !- CustomDay2 Schedule:Day Name

OS:Schedule:Day,
  {112f4094-cb02-41ee-9d81-c9f30c1d2207}, !- Handle
  Medium Office Infil Quarter On Rule 1 Day Schedule, !- Name
  {9789e075-c279-4723-a02e-6a163527ba7f}, !- Schedule Type Limits Name
  ,                                       !- Interpolate to Timestep
  24,                                     !- Hour 1
  0,                                      !- Minute 1
  1;                                      !- Value Until Time 1

OS:Schedule:Year,
  {5b186c55-944b-4af6-ab71-f6b71902b2c9}, !- Handle
  Office Bldg Light,                      !- Name
  {9789e075-c279-4723-a02e-6a163527ba7f}, !- Schedule Type Limits Name
  1,                                      !- Month 1
  3,                                      !- Day 1
  {d7258cc0-a92d-4f1e-a8ae-fef3d5c9eb93}, !- Week Schedule Until Date 1
  12,                                     !- Month 2
  31,                                     !- Day 2
  {1085224f-caaf-43e4-9620-073cf9413077}; !- Week Schedule Until Date 2

OS:Schedule:Week,
  {d7258cc0-a92d-4f1e-a8ae-fef3d5c9eb93}, !- Handle
  Schedule:Week:Daily {77782ce5-1a70-49a7-b72d-db0988271982}, !- Name
  ,                                       !- Schedule Rendering Name
  {6b273405-54f1-4479-9046-d4b10204dc4c}, !- Sunday Schedule:Day Name
  {6b273405-54f1-4479-9046-d4b10204dc4c}, !- Monday Schedule:Day Name
  {6b273405-54f1-4479-9046-d4b10204dc4c}, !- Tuesday Schedule:Day Name
  {6b273405-54f1-4479-9046-d4b10204dc4c}, !- Wednesday Schedule:Day Name
  {6b273405-54f1-4479-9046-d4b10204dc4c}, !- Thursday Schedule:Day Name
  {6b273405-54f1-4479-9046-d4b10204dc4c}, !- Friday Schedule:Day Name
  {ee0d3f20-c748-416c-9172-85da7f632042}, !- Saturday Schedule:Day Name
  {6b273405-54f1-4479-9046-d4b10204dc4c}, !- Holiday Schedule:Day Name
  {113b78d7-685d-4fff-9d58-43061cff407d}, !- SummerDesignDay Schedule:Day Name
  {1bbb6213-7a70-4f4d-82e7-74c86f80e10c}, !- WinterDesignDay Schedule:Day Name
  {6b273405-54f1-4479-9046-d4b10204dc4c}, !- CustomDay1 Schedule:Day Name
  {6b273405-54f1-4479-9046-d4b10204dc4c}; !- CustomDay2 Schedule:Day Name

OS:Schedule:Day,
  {6b273405-54f1-4479-9046-d4b10204dc4c}, !- Handle
  Office Bldg Light Default Schedule,     !- Name
  {9789e075-c279-4723-a02e-6a163527ba7f}, !- Schedule Type Limits Name
  ,                                       !- Interpolate to Timestep
  5,                                      !- Hour 1
  0,                                      !- Minute 1
  0.05,                                   !- Value Until Time 1
  7,                                      !- Hour 2
  0,                                      !- Minute 2
  0.1,                                    !- Value Until Time 2
  8,                                      !- Hour 3
  0,                                      !- Minute 3
  0.3,                                    !- Value Until Time 3
  17,                                     !- Hour 4
  0,                                      !- Minute 4
  0.9,                                    !- Value Until Time 4
  18,                                     !- Hour 5
  0,                                      !- Minute 5
  0.7,                                    !- Value Until Time 5
  20,                                     !- Hour 6
  0,                                      !- Minute 6
  0.5,                                    !- Value Until Time 6
  22,                                     !- Hour 7
  0,                                      !- Minute 7
  0.3,                                    !- Value Until Time 7
  23,                                     !- Hour 8
  0,                                      !- Minute 8
  0.1,                                    !- Value Until Time 8
  24,                                     !- Hour 9
  0,                                      !- Minute 9
  0.05;                                   !- Value Until Time 9

OS:Schedule:Day,
  {ee0d3f20-c748-416c-9172-85da7f632042}, !- Handle
  Office Bldg Light Rule 2 Day Schedule,  !- Name
  {9789e075-c279-4723-a02e-6a163527ba7f}, !- Schedule Type Limits Name
  ,                                       !- Interpolate to Timestep
  6,                                      !- Hour 1
  0,                                      !- Minute 1
  0.05,                                   !- Value Until Time 1
  8,                                      !- Hour 2
  0,                                      !- Minute 2
  0.1,                                    !- Value Until Time 2
  14,                                     !- Hour 3
  0,                                      !- Minute 3
  0.5,                                    !- Value Until Time 3
  17,                                     !- Hour 4
  0,                                      !- Minute 4
  0.15,                                   !- Value Until Time 4
  24,                                     !- Hour 5
  0,                                      !- Minute 5
  0.05;                                   !- Value Until Time 5

OS:Schedule:Day,
  {113b78d7-685d-4fff-9d58-43061cff407d}, !- Handle
  Office Bldg Light Summer Design Day,    !- Name
  {9789e075-c279-4723-a02e-6a163527ba7f}, !- Schedule Type Limits Name
  ,                                       !- Interpolate to Timestep
  24,                                     !- Hour 1
  0,                                      !- Minute 1
  1;                                      !- Value Until Time 1

OS:Schedule:Day,
  {1bbb6213-7a70-4f4d-82e7-74c86f80e10c}, !- Handle
  Office Bldg Light Winter Design Day,    !- Name
  {9789e075-c279-4723-a02e-6a163527ba7f}, !- Schedule Type Limits Name
  ,                                       !- Interpolate to Timestep
  24,                                     !- Hour 1
  0,                                      !- Minute 1
  0;                                      !- Value Until Time 1

OS:Schedule:Week,
  {1085224f-caaf-43e4-9620-073cf9413077}, !- Handle
  Schedule:Week:Daily {1558189b-593c-4115-b061-465417357844}, !- Name
  ,                                       !- Schedule Rendering Name
  {ba183413-a355-4d5b-b70e-f2d8b468bd89}, !- Sunday Schedule:Day Name
  {6b273405-54f1-4479-9046-d4b10204dc4c}, !- Monday Schedule:Day Name
  {6b273405-54f1-4479-9046-d4b10204dc4c}, !- Tuesday Schedule:Day Name
  {6b273405-54f1-4479-9046-d4b10204dc4c}, !- Wednesday Schedule:Day Name
  {6b273405-54f1-4479-9046-d4b10204dc4c}, !- Thursday Schedule:Day Name
  {6b273405-54f1-4479-9046-d4b10204dc4c}, !- Friday Schedule:Day Name
  {ee0d3f20-c748-416c-9172-85da7f632042}, !- Saturday Schedule:Day Name
  {6b273405-54f1-4479-9046-d4b10204dc4c}, !- Holiday Schedule:Day Name
  {113b78d7-685d-4fff-9d58-43061cff407d}, !- SummerDesignDay Schedule:Day Name
  {1bbb6213-7a70-4f4d-82e7-74c86f80e10c}, !- WinterDesignDay Schedule:Day Name
  {6b273405-54f1-4479-9046-d4b10204dc4c}, !- CustomDay1 Schedule:Day Name
  {6b273405-54f1-4479-9046-d4b10204dc4c}; !- CustomDay2 Schedule:Day Name

OS:Schedule:Day,
  {ba183413-a355-4d5b-b70e-f2d8b468bd89}, !- Handle
  Office Bldg Light Rule 1 Day Schedule,  !- Name