
OS:Version,
  {52f2cc58-754a-4f04-b698-078de01492c1}, !- Handle
  1.13.3;                                 !- Version Identifier

OS:RunPeriod,
  {64ae30fd-b7e5-4194-b824-8e4c0bffad91}, !- Handle
  Run Period 1,                           !- Name
  1,                                      !- Begin Month
  1,                                      !- Begin Day of Month
  12,                                     !- End Month
  31,                                     !- End Day of Month
  ,                                       !- Use Weather File Holidays and Special Days
  ,                                       !- Use Weather File Daylight Saving Period
  ,                                       !- Apply Weekend Holiday Rule
  ,                                       !- Use Weather File Rain Indicators
  ,                                       !- Use Weather File Snow Indicators
  ;                                       !- Number of Times Runperiod to be Repeated

OS:Timestep,
  {66897513-b66f-4bd4-8ed2-ca743b79c0cc}, !- Handle
  6;                                      !- Number of Timesteps per Hour

OS:Building,
  {328ba5cd-533a-49f1-a094-99b4b18faeef}, !- Handle
  Building 1,                             !- Name
  ,                                       !- Building Sector Type
  0,                                      !- North Axis {deg}
  ,                                       !- Nominal Floor to Floor Height {m}
  ,                                       !- Space Type Name
  ,                                       !- Default Construction Set Name
  ;                                       !- Default Schedule Set Name

OS:Site,
  {60666687-2d11-46cb-a78b-7328c074f3ea}, !- Handle
  Chicago Ohare Intl Ap	USA,              !- Name
  41.98,                                  !- Latitude {deg}
  -87.92,                                 !- Longitude {deg}
  -6,                                     !- Time Zone {hr}
  201,                                    !- Elevation {m}
  City;                                   !- Terrain

OS:SimulationControl,
  {25f8dede-6cc7-445d-ac20-cd80740986b9}, !- Handle
  Yes,                                    !- Do Zone Sizing Calculation
  Yes,                                    !- Do System Sizing Calculation
  Yes,                                    !- Do Plant Sizing Calculation
  No,                                     !- Run Simulation for Sizing Periods
  Yes,                                    !- Run Simulation for Weather File Run Periods
  ,                                       !- Loads Convergence Tolerance Value
  ,                                       !- Temperature Convergence Tolerance Value {deltaC}
  FullInteriorAndExteriorWithReflections; !- Solar Distribution

OS:ShadowCalculation,
  {ed91c4b7-4715-426d-b05c-5d32ad43b9fd}, !- Handle
  30,                                     !- Calculation Frequency
  3000;                                   !- Maximum Figures in Shadow Overlap Calculations

OS:Sizing:Parameters,
  {81bc871a-6f04-422f-b66a-55c7232fdbac}, !- Handle
  1.25,                                   !- Heating Sizing Factor
  1.15;                                   !- Cooling Sizing Factor

OS:SizingPeriod:DesignDay,
  {7a8ee20f-b17e-4d72-bbfe-d065054d537c}, !- Handle
  Ann Clg .4% Condns DB=>MWB,             !- Name
  32.2,                                   !- Maximum Dry-Bulb Temperature {C}
  10.6,                                   !- Daily Dry-Bulb Temperature Range {deltaC}
  25.441,                                 !- Humidity Indicating Conditions at Maximum Dry-Bulb
  99188,                                  !- Barometric Pressure {Pa}
  6.2,                                    !- Wind Speed {m/s}
  191,                                    !- Wind Direction {deg}
  1.2,                                    !- Sky Clearness
  0,                                      !- Rain Indicator
  0,                                      !- Snow Indicator
  21,                                     !- Day of Month
  7,                                      !- Month
  SummerDesignDay,                        !- Day Type
  0,                                      !- Daylight Saving Time Indicator
  Wetbulb,                                !- Humidity Indicating Type
  ,                                       !- Humidity Indicating Day Schedule Name
  DefaultMultipliers,                     !- Dry-Bulb Temperature Range Modifier Type
  ,                                       !- Dry-Bulb Temperature Range Modifier Schedule Name
  ASHRAEClearSky;                         !- Solar Model Indicator

OS:SizingPeriod:DesignDay,
  {82aa3629-b3d6-49c0-98ae-a91cf5c1daec}, !- Handle
  Ann Clg .4% Condns Enth=>MDB,           !- Name
  31.7,                                   !- Maximum Dry-Bulb Temperature {C}
  10.6,                                   !- Daily Dry-Bulb Temperature Range {deltaC}
  78779,                                  !- Humidity Indicating Conditions at Maximum Dry-Bulb
  99188,                                  !- Barometric Pressure {Pa}
  6.2,                                    !- Wind Speed {m/s}
  191,                                    !- Wind Direction {deg}
  1.2,                                    !- Sky Clearness
  0,                                      !- Rain Indicator
  0,                                      !- Snow Indicator
  21,                                     !- Day of Month
  7,                                      !- Month
  SummerDesignDay,                        !- Day Type
  0,                                      !- Daylight Saving Time Indicator
  Enthalpy,                               !- Humidity Indicating Type
  ,                                       !- Humidity Indicating Day Schedule Name
  DefaultMultipliers,                     !- Dry-Bulb Temperature Range Modifier Type
  ,                                       !- Dry-Bulb Temperature Range Modifier Schedule Name
  ASHRAEClearSky;                         !- Solar Model Indicator

OS:SizingPeriod:DesignDay,
  {4bcfce02-e46e-47b1-b751-d8491f6a23a1}, !- Handle
  Ann Clg .4% Condns WB=>MDB,             !- Name
  31.7,                                   !- Maximum Dry-Bulb Temperature {C}
  10.6,                                   !- Daily Dry-Bulb Temperature Range {deltaC}
  25.54,                                  !- Humidity Indicating Conditions at Maximum Dry-Bulb
  99188,                                  !- Barometric Pressure {Pa}
  6.2,                                    !- Wind Speed {m/s}
  191,                                    !- Wind Direction {deg}
  1.2,                                    !- Sky Clearness
  0,                                      !- Rain Indicator
  0,                                      !- Snow Indicator
  21,                                     !- Day of Month
  7,                                      !- Month
  SummerDesignDay,                        !- Day Type
  0,                                      !- Daylight Saving Time Indicator
  Wetbulb,                                !- Humidity Indicating Type
  ,                                       !- Humidity Indicating Day Schedule Name
  DefaultMultipliers,                     !- Dry-Bulb Temperature Range Modifier Type
  ,                                       !- Dry-Bulb Temperature Range Modifier Schedule Name
  ASHRAEClearSky;                         !- Solar Model Indicator

OS:SizingPeriod:DesignDay,
  {ae79d316-c8d4-4d9c-b650-1aee53a8e87c}, !- Handle
  Ann Hum_n 99.6% Condns DP=>MCDB,        !- Name
  -17.8,                                  !- Maximum Dry-Bulb Temperature {C}
  0,                                      !- Daily Dry-Bulb Temperature Range {deltaC}
  -26.7,                                  !- Humidity Indicating Conditions at Maximum Dry-Bulb
  99188,                                  !- Barometric Pressure {Pa}
  5.2,                                    !- Wind Speed {m/s}
  241,                                    !- Wind Direction {deg}
  0,                                      !- Sky Clearness
  0,                                      !- Rain Indicator
  0,                                      !- Snow Indicator
  21,                                     !- Day of Month
  1,                                      !- Month
  WinterDesignDay,                        !- Day Type
  0,                                      !- Daylight Saving Time Indicator
  Dewpoint,                               !- Humidity Indicating Type
  ,                                       !- Humidity Indicating Day Schedule Name
  DefaultMultipliers,                     !- Dry-Bulb Temperature Range Modifier Type
  ,                                       !- Dry-Bulb Temperature Range Modifier Schedule Name
  ASHRAEClearSky;                         !- Solar Model Indicator

OS:SizingPeriod:DesignDay,
  {af7f14e1-316c-4af1-9a46-7faad475be31}, !- Handle
  Ann Clg .4% Condns DP=>MDB,             !- Name
  32.8,                                   !- Maximum Dry-Bulb Temperature {C}
  10.6,                                   !- Daily Dry-Bulb Temperature Range {deltaC}
  23.3,                                   !- Humidity Indicating Conditions at Maximum Dry-Bulb
  99188,                                  !- Barometric Pressure {Pa}
  6.2,                                    !- Wind Speed {m/s}
  191,                                    !- Wind Direction {deg}
  1.2,                                    !- Sky Clearness
  0,                                      !- Rain Indicator
  0,                                      !- Snow Indicator
  21,                                     !- Day of Month
  7,                                      !- Month
  SummerDesignDay,                        !- Day Type
  0,                                      !- Daylight Saving Time Indicator
  Dewpoint,                               !- Humidity Indicating Type
  ,                                       !- Humidity Indicating Day Schedule Name
  DefaultMultipliers,                     !- Dry-Bulb Temperature Range Modifier Type
  ,                                       !- Dry-Bulb Temperature Range Modifier Schedule Name
  ASHRAEClearSky;                         !- Solar Model Indicator

OS:SizingPeriod:DesignDay,
  {28081c15-a069-40c1-9b43-e92046c17801}, !- Handle
  Ann Htg 99.6% Condns DB,                !- Name
  -20,                                    !- Maximum Dry-Bulb Temperature {C}
  0,                                      !- Daily Dry-Bulb Temperature Range {deltaC}
  -20,                                    !- Humidity Indicating Conditions at Maximum Dry-Bulb
  99188,                                  !- Barometric Pressure {Pa}
  5.2,                                    !- Wind Speed {m/s}
  241,                                    !- Wind Direction {deg}
  0,                                      !- Sky Clearness
  0,                                      !- Rain Indicator
  0,                                      !- Snow Indicator
  21,                                     !- Day of Month
  1,                                      !- Month
  WinterDesignDay,                        !- Day Type
  0,                                      !- Daylight Saving Time Indicator
  Wetbulb,                                !- Humidity Indicating Type
  ,                                       !- Humidity Indicating Day Schedule Name
  DefaultMultipliers,                     !- Dry-Bulb Temperature Range Modifier Type
  ,                                       !- Dry-Bulb Temperature Range Modifier Schedule Name
  ASHRAEClearSky;                         !- Solar Model Indicator

OS:SizingPeriod:DesignDay,
  {ebddcd6c-44e1-4406-a869-5917f1355384}, !- Handle
  Ann Htg Wind 99.6% Condns WS=>MCDB,     !- Name
  -2.2,                                   !- Maximum Dry-Bulb Temperature {C}
  0,                                      !- Daily Dry-Bulb Temperature Range {deltaC}
  -2.2,                                   !- Humidity Indicating Conditions at Maximum Dry-Bulb
  99188,                                  !- Barometric Pressure {Pa}
  12.4,                                   !- Wind Speed {m/s}
  241,                                    !- Wind Direction {deg}
  0,                                      !- Sky Clearness
  0,                                      !- Rain Indicator
  0,                                      !- Snow Indicator
  21,                                     !- Day of Month
  1,                                      !- Month
  WinterDesignDay,                        !- Day Type
  0,                                      !- Daylight Saving Time Indicator
  Wetbulb,                                !- Humidity Indicating Type
  ,                                       !- Humidity Indicating Day Schedule Name
  DefaultMultipliers,                     !- Dry-Bulb Temperature Range Modifier Type
  ,                                       !- Dry-Bulb Temperature Range Modifier Schedule Name
  ASHRAEClearSky;                         !- Solar Model Indicator

OS:BuildingStory,
  {aedfdf4b-df2a-4615-aa69-f209cdb4b3e5}, !- Handle
  Building Story 1,                       !- Name
  0,                                      !- Nominal Z Coordinate {m}
  ,                                       !- Nominal Floor to Floor Height {m}
  ,                                       !- Default Construction Set Name
  ,                                       !- Default Schedule Set Name
  ;                                       !- Group Rendering Name

OS:Space,
  {e721507b-2a73-4bdf-a2d5-d5660abffcd4}, !- Handle
  zone_15_space,                          !- Name
  {8c89cadc-8019-496a-ad56-67b15268c408}, !- Space Type Name
  ,                                       !- Default Construction Set Name
  {c1c341bd-81f7-4cbc-b6a2-30522e8ca834}, !- Default Schedule Set Name
  ,                                       !- Direction of Relative North {deg}
  ,                                       !- X Origin {m}
  ,                                       !- Y Origin {m}
  ,                                       !- Z Origin {m}
  {aedfdf4b-df2a-4615-aa69-f209cdb4b3e5}, !- Building Story Name
  {89cfd6c1-397f-4d7a-8d37-9b9675dc7324}, !- Thermal Zone Name
  ,                                       !- Part of Total Floor Area
  {de2a7046-9087-43dc-9212-c9916ab76deb}; !- Design Specification Outdoor Air Object Name

OS:SpaceType,
  {8c89cadc-8019-496a-ad56-67b15268c408}, !- Handle
  Office:OpenOffice;                      !- Name

OS:DefaultScheduleSet,
  {c1c341bd-81f7-4cbc-b6a2-30522e8ca834}, !- Handle
  zone_15_DefaultScheduleSet,             !- Name
  {b2e92b4e-82cf-469e-9927-a89e426f59cc}, !- Hours of Operation Schedule Name
  ,                                       !- Number of People Schedule Name
  {32d59250-f7e0-48aa-8505-107114ce46f6}, !- People Activity Level Schedule Name
  {985406e1-668b-4ff6-b0aa-b2dd5b2ab968}, !- Lighting Schedule Name
  {5066c57b-7ac9-4f8d-b14a-78d46da29263}, !- Electric Equipment Schedule Name
  ,                                       !- Gas Equipment Schedule Name
  ,                                       !- Hot Water Equipment Schedule Name
  {b11b6811-4da1-4ce9-b97e-f6357a4d7f7d}, !- Infiltration Schedule Name
  ,                                       !- Steam Equipment Schedule Name
  ;                                       !- Other Equipment Schedule Name

OS:ScheduleTypeLimits,
  {9212f57b-d7fe-4f9d-a7e2-484adf7f1780}, !- Handle
  Schedule Type Limits 1,                 !- Name
  0,                                      !- Lower Limit Value
  1,                                      !- Upper Limit Value
  CONTINUOUS;                             !- Numeric Type

OS:Schedule:Year,
  {b11b6811-4da1-4ce9-b97e-f6357a4d7f7d}, !- Handle
  Medium Office Infil Quarter On,         !- Name
  {9212f57b-d7fe-4f9d-a7e2-484adf7f1780}, !- Schedule Type Limits Name
  1,                                      !- Month 1
  3,                                      !- Day 1
  {175e4597-d2d0-4f74-8e09-9b3f875fb92e}, !- Week Schedule Until Date 1
  12,                                     !- Month 2
  31,                                     !- Day 2
  {14618729-b0fd-4db3-9a06-47fec7b8c14c}; !- Week Schedule Until Date 2

OS:Schedule:Week,
  {175e4597-d2d0-4f74-8e09-9b3f875fb92e}, !- Handle
  Schedule:Week:Daily {10ec3e5a-5294-46cc-8ada-f12e209007b8}, !- Name
  ,                                       !- Schedule Rendering Name
  {67ce8ac2-4d7e-4285-bc39-6ea44931541a}, !- Sunday Schedule:Day Name
  {67ce8ac2-4d7e-4285-bc39-6ea44931541a}, !- Monday Schedule:Day Name
  {67ce8ac2-4d7e-4285-bc39-6ea44931541a}, !- Tuesday Schedule:Day Name
  {67ce8ac2-4d7e-4285-bc39-6ea44931541a}, !- Wednesday Schedule:Day Name
  {67ce8ac2-4d7e-4285-bc39-6ea44931541a}, !- Thursday Schedule:Day Name
  {67ce8ac2-4d7e-4285-bc39-6ea44931541a}, !- Friday Schedule:Day Name
  {31ff14df-7a00-40ec-826d-6ece8e8cacc0}, !- Saturday Schedule:Day Name
  {67ce8ac2-4d7e-4285-bc39-6ea44931541a}, !- Holiday Schedule:Day Name
  {4aa4724f-1d63-438c-abd7-fc6cd81c0052}, !- SummerDesignDay Schedule:Day Name
  {0afd0a99-68e2-4a5a-a572-6f00e1861c8c}, !- WinterDesignDay Schedule:Day Name
  {67ce8ac2-4d7e-4285-bc39-6ea44931541a}, !- CustomDay1 Schedule:Day Name
  {67ce8ac2-4d7e-4285-bc39-6ea44931541a}; !- CustomDay2 Schedule:Day Name

OS:Schedule:Day,
  {67ce8ac2-4d7e-4285-bc39-6ea44931541a}, !- Handle
  Medium Office Infil Quarter On Default Schedule, !- Name
  {9212f57b-d7fe-4f9d-a7e2-484adf7f1780}, !- Schedule Type Limits Name
  ,                                       !- Interpolate to Timestep
  6,                                      !- Hour 1
  0,                                      !- Minute 1
  1,                                      !- Value Until Time 1
  22,                                     !- Hour 2
  0,                                      !- Minute 2
  0.25,                                   !- Value Until Time 2
  24,                                     !- Hour 3
  0,                                      !- Minute 3
  1;                                      !- Value Until Time 3

OS:Schedule:Day,
  {31ff14df-7a00-40ec-826d-6ece8e8cacc0}, !- Handle
  Medium Office Infil Quarter On Rule 2 Day Schedule, !- Name
  {9212f57b-d7fe-4f9d-a7e2-484adf7f1780}, !- Schedule Type Limits Name
  ,                                       !- Interpolate to Timestep
  6,                                      !- Hour 1
  0,                                      !- Minute 1
  1,                                      !- Value Until Time 1
  18,                                     !- Hour 2
  0,                                      !- Minute 2
  0.25,                                   !- Value Until Time 2
  24,                                     !- Hour 3
  0,                                      !- Minute 3
  1;                                      !- Value Until Time 3

OS:Schedule:Day,
  {4aa4724f-1d63-438c-abd7-fc6cd81c0052}, !- Handle
  Medium Office Infil Quarter On Summer Design Day, !- Name
  {9212f57b-d7fe-4f9d-a7e2-484adf7f1780}, !- Schedule Type Limits Name
  ,                                       !- Interpolate to Timestep
  6,                                      !- Hour 1
  0,                                      !- Minute 1
  1,                                      !- Value Until Time 1
  22,                                     !- Hour 2
  0,                                      !- Minute 2
  0.25,                                   !- Value Until Time 2
  24,                                     !- Hour 3
  0,                                      !- Minute 3
  1;                                      !- Value Until Time 3

OS:Schedule:Day,
  {0afd0a99-68e2-4a5a-a572-6f00e1861c8c}, !- Handle
  Medium Office Infil Quarter On Winter Design Day, !- Name
  {9212f57b-d7fe-4f9d-a7e2-484adf7f1780}, !- Schedule Type Limits Name
  ,                                       !- Interpolate to Timestep
  6,                                      !- Hour 1
  0,                                      !- Minute 1
  1,                                      !- Value Until Time 1
  18,                                     !- Hour 2
  0,                                      !- Minute 2
  0.25,                                   !- Value Until Time 2
  24,                                     !- Hour 3
  0,                                      !- Minute 3
  1;                                      !- Value Until Time 3

OS:YearDescription,
  {43e70400-3841-4267-bd3f-d75125566c02}; !- Handle

OS:Schedule:Week,
  {14618729-b0fd-4db3-9a06-47fec7b8c14c}, !- Handle
  Schedule:Week:Daily {20898e88-71dc-48a1-8bf4-30a1d78b98f6}, !- Name
  ,                                       !- Schedule Rendering Name
  {4ce34d47-4bd5-4e43-82d1-1cf1070cae4d}, !- Sunday Schedule:Day Name
  {67ce8ac2-4d7e-4285-bc39-6ea44931541a}, !- Monday Schedule:Day Name
  {67ce8ac2-4d7e-4285-bc39-6ea44931541a}, !- Tuesday Schedule:Day Name
  {67ce8ac2-4d7e-4285-bc39-6ea44931541a}, !- Wednesday Schedule:Day Name
  {67ce8ac2-4d7e-4285-bc39-6ea44931541a}, !- Thursday Schedule:Day Name
  {67ce8ac2-4d7e-4285-bc39-6ea44931541a}, !- Friday Schedule:Day Name
  {31ff14df-7a00-40ec-826d-6ece8e8cacc0}, !- Saturday Schedule:Day Name
  {67ce8ac2-4d7e-4285-bc39-6ea44931541a}, !- Holiday Schedule:Day Name
  {4aa4724f-1d63-438c-abd7-fc6cd81c0052}, !- SummerDesignDay Schedule:Day Name
  {0afd0a99-68e2-4a5a-a572-6f00e1861c8c}, !- WinterDesignDay Schedule:Day Name
  {67ce8ac2-4d7e-4285-bc39-6ea44931541a}, !- CustomDay1 Schedule:Day Name
  {67ce8ac2-4d7e-4285-bc39-6ea44931541a}; !- CustomDay2 Schedule:Day Name

OS:Schedule:Day,
  {4ce34d47-4bd5-4e43-82d1-1cf1070cae4d}, !- Handle
  Medium Office Infil Quarter On Rule 1 Day Schedule, !- Name
  {9212f57b-d7fe-4f9d-a7e2-484adf7f1780}, !- Schedule Type Limits Name
  ,                                       !- Interpolate to Timestep
  24,                                     !- Hour 1
  0,                                      !- Minute 1
  1;                                      !- Value Until Time 1

OS:Schedule:Year,
  {985406e1-668b-4ff6-b0aa-b2dd5b2ab968}, !- Handle
  Office Bldg Light,                      !- Name
  {9212f57b-d7fe-4f9d-a7e2-484adf7f1780}, !- Schedule Type Limits Name
  1,                                      !- Month 1
  3,                                      !- Day 1
  {ac4a887a-6b71-498f-ae9c-b21b206f170e}, !- Week Schedule Until Date 1
  12,                                     !- Month 2
  31,                                     !- Day 2
  {3bbf6a93-a6e1-47d4-9f71-db901c704844}; !- Week Schedule Until Date 2

OS:Schedule:Week,
  {ac4a887a-6b71-498f-ae9c-b21b206f170e}, !- Handle
  Schedule:Week:Daily {77782ce5-1a70-49a7-b72d-db0988271982}, !- Name
  ,                                       !- Schedule Rendering Name
  {378c7b0d-5faf-42ec-8c07-8f5e6d888e86}, !- Sunday Schedule:Day Name
  {378c7b0d-5faf-42ec-8c07-8f5e6d888e86}, !- Monday Schedule:Day Name
  {378c7b0d-5faf-42ec-8c07-8f5e6d888e86}, !- Tuesday Schedule:Day Name
  {378c7b0d-5faf-42ec-8c07-8f5e6d888e86}, !- Wednesday Schedule:Day Name
  {378c7b0d-5faf-42ec-8c07-8f5e6d888e86}, !- Thursday Schedule:Day Name
  {378c7b0d-5faf-42ec-8c07-8f5e6d888e86}, !- Friday Schedule:Day Name
  {80f63e80-ea34-4992-b76f-20efa43d89c2}, !- Saturday Schedule:Day Name
  {378c7b0d-5faf-42ec-8c07-8f5e6d888e86}, !- Holiday Schedule:Day Name
  {c486f3f8-1faf-498b-a743-5ed14a4ff031}, !- SummerDesignDay Schedule:Day Name
  {758c7390-5d6d-4d40-8bb4-43cb3e784a67}, !- WinterDesignDay Schedule:Day Name
  {378c7b0d-5faf-42ec-8c07-8f5e6d888e86}, !- CustomDay1 Schedule:Day Name
  {378c7b0d-5faf-42ec-8c07-8f5e6d888e86}; !- CustomDay2 Schedule:Day Name

OS:Schedule:Day,
  {378c7b0d-5faf-42ec-8c07-8f5e6d888e86}, !- Handle
  Office Bldg Light Default Schedule,     !- Name
  {9212f57b-d7fe-4f9d-a7e2-484adf7f1780}, !- Schedule Type Limits Name
  ,                                       !- Interpolate to Timestep
  5,                                      !- Hour 1
  0,                                      !- Minute 1
  0.05,                                   !- Value Until Time 1
  7,                                      !- Hour 2
  0,                                      !- Minute 2
  0.1,                                    !- Value Until Time 2
  8,                                      !- Hour 3
  0,                                      !- Minute 3
  0.3,                                    !- Value Until Time 3
  17,                                     !- Hour 4
  0,                                      !- Minute 4
  0.9,                                    !- Value Until Time 4
  18,                                     !- Hour 5
  0,                                      !- Minute 5
  0.7,                                    !- Value Until Time 5
  20,                                     !- Hour 6
  0,                                      !- Minute 6
  0.5,                                    !- Value Until Time 6
  22,                                     !- Hour 7
  0,                                      !- Minute 7
  0.3,                                    !- Value Until Time 7
  23,                                     !- Hour 8
  0,                                      !- Minute 8
  0.1,                                    !- Value Until Time 8
  24,                                     !- Hour 9
  0,                                      !- Minute 9
  0.05;                                   !- Value Until Time 9

OS:Schedule:Day,
  {80f63e80-ea34-4992-b76f-20efa43d89c2}, !- Handle
  Office Bldg Light Rule 2 Day Schedule,  !- Name
  {9212f57b-d7fe-4f9d-a7e2-484adf7f1780}, !- Schedule Type Limits Name
  ,                                       !- Interpolate to Timestep
  6,                                      !- Hour 1
  0,                                      !- Minute 1
  0.05,                                   !- Value Until Time 1
  8,                                      !- Hour 2
  0,                                      !- Minute 2
  0.1,                                    !- Value Until Time 2
  14,                                     !- Hour 3
  0,                                      !- Minute 3
  0.5,                                    !- Value Until Time 3
  17,                                     !- Hour 4
  0,                                      !- Minute 4
  0.15,                                   !- Value Until Time 4
  24,                                     !- Hour 5
  0,                                      !- Minute 5
  0.05;                                   !- Value Until Time 5

OS:Schedule:Day,
  {c486f3f8-1faf-498b-a743-5ed14a4ff031}, !- Handle
  Office Bldg Light Summer Design Day,    !- Name
  {9212f57b-d7fe-4f9d-a7e2-484adf7f1780}, !- Schedule Type Limits Name
  ,                                       !- Interpolate to Timestep
  24,                                     !- Hour 1
  0,                                      !- Minute 1
  1;                                      !- Value Until Time 1

OS:Schedule:Day,
  {758c7390-5d6d-4d40-8bb4-43cb3e784a67}, !- Handle
  Office Bldg Light Winter Design Day,    !- Name
  {9212f57b-d7fe-4f9d-a7e2-484adf7f1780}, !- Schedule Type Limits Name
  ,                                       !- Interpolate to Timestep
  24,                                     !- Hour 1
  0,                                      !- Minute 1
  0;                                      !- Value Until Time 1

OS:Schedule:Week,
  {3bbf6a93-a6e1-47d4-9f71-db901c704844}, !- Handle
  Schedule:Week:Daily {1558189b-593c-4115-b061-465417357844}, !- Name
  ,                                       !- Schedule Rendering Name
  {256a3419-1568-4db2-b797-f19f3a29e766}, !- Sunday Schedule:Day Name
  {378c7b0d-5faf-42ec-8c07-8f5e6d888e86}, !- Monday Schedule:Day Name
  {378c7b0d-5faf-42ec-8c07-8f5e6d888e86}, !- Tuesday Schedule:Day Name
  {378c7b0d-5faf-42ec-8c07-8f5e6d888e86}, !- Wednesday Schedule:Day Name
  {378c7b0d-5faf-42ec-8c07-8f5e6d888e86}, !- Thursday Schedule:Day Name
  {378c7b0d-5faf-42ec-8c07-8f5e6d888e86}, !- Friday Schedule:Day Name
  {80f63e80-ea34-4992-b76f-20efa43d89c2}, !- Saturday Schedule:Day Name
  {378c7b0d-5faf-42ec-8c07-8f5e6d888e86}, !- Holiday Schedule:Day Name
  {c486f3f8-1faf-498b-a743-5ed14a4ff031}, !- SummerDesignDay Schedule:Day Name
  {758c7390-5d6d-4d40-8bb4-43cb3e784a67}, !- WinterDesignDay Schedule:Day Name
  {378c7b0d-5faf-42ec-8c07-8f5e6d888e86}, !- CustomDay1 Schedule:Day Name
  {378c7b0d-5faf-42ec-8c07-8f5e6d888e86}; !- CustomDay2 Schedule:Day Name

OS:Schedule:Day,
  {256a3419-1568-4db2-b797-f19f3a29e766}, !- Handle
  Office Bldg Light Rule 1 Day Schedule,  !- Name
  {9212f57b-d7fe-4f9d-a7e2-484adf7f1780}, !- Schedule Type Limits Name
  ,                                       !- Interpolate to Timestep
  24,                                     !- Hour 1
  0,                                      !- Minute 1
  0.05;                                   !- Value Until Time 1

OS:Schedule:Year,
  {5066c57b-7ac9-4f8d-b14a-78d46da29263}, !- Handle
  Medium Office Bldg Equip,               !- Name
  {9212f57b-d7fe-4f9d-a7e2-484adf7f1780}, !- Schedule Type Limits Name
  1,                                      !- Month 1
  3,                                      !- Day 1
  {1dbf05ae-25ab-4544-ae21-6ae3e6fe34bf}, !- Week Schedule Until Date 1
  12,                                     !- Month 2
  31,                                     !- Day 2