
Version,
  8.7;                                    !- Version Identifier

LifeCycleCost:Parameters,
  {b4c63b94-c074-4bfb-a95c-7145af5327a9}, !- Name
  EndOfYear,                              !- Discounting Convention
  ConstantDollar,                         !- Inflation Approach
  0.03,                                   !- Real Discount Rate
  ,                                       !- Nominal Discount Rate
  ,                                       !- Inflation
  ,                                       !- Base Date Month
  2011,                                   !- Base Date Year
  ,                                       !- Service Date Month
  2011,                                   !- Service Date Year
  25,                                     !- Length of Study Period in Years
  ,                                       !- Tax rate
  None;                                   !- Depreciation Method

LifeCycleCost:UsePriceEscalation,
  U.S. Avg  Commercial-Electricity,       !- Name
  Electricity,                            !- Resource
  2011,                                   !- Escalation Start Year
  January,                                !- Escalation Start Month
  0.9838,                                 !- Year Escalation 1
  0.9730,                                 !- Year Escalation 2
  0.9632,                                 !- Year Escalation 3
  0.9611,                                 !- Year Escalation 4
  0.9571,                                 !- Year Escalation 5
  0.9553,                                 !- Year Escalation 6
  0.9539,                                 !- Year Escalation 7
  0.9521,                                 !- Year Escalation 8
  0.9546,                                 !- Year Escalation 9
  0.9550,                                 !- Year Escalation 10
  0.9553,                                 !- Year Escalation 11
  0.9564,                                 !- Year Escalation 12
  0.9575,                                 !- Year Escalation 13
  0.9596,                                 !- Year Escalation 14
  0.9618,                                 !- Year Escalation 15
  0.9614,                                 !- Year Escalation 16
  0.9618,                                 !- Year Escalation 17
  0.9618,                                 !- Year Escalation 18
  0.9593,                                 !- Year Escalation 19
  0.9589,                                 !- Year Escalation 20
  0.9607,                                 !- Year Escalation 21
  0.9625,                                 !- Year Escalation 22
  0.9650,                                 !- Year Escalation 23
  0.9708,                                 !- Year Escalation 24
  0.9751,                                 !- Year Escalation 25
  0.9762,                                 !- Year Escalation 26
  0.9766,                                 !- Year Escalation 27
  0.9766,                                 !- Year Escalation 28
  0.9769,                                 !- Year Escalation 29
  0.9773;                                 !- Year Escalation 30

LifeCycleCost:UsePriceEscalation,
  U.S. Avg  Commercial-Distillate Oil,    !- Name
  FuelOil#1,                              !- Resource
  2011,                                   !- Escalation Start Year
  January,                                !- Escalation Start Month
  0.9714,                                 !- Year Escalation 1
  0.9730,                                 !- Year Escalation 2
  0.9942,                                 !- Year Escalation 3
  1.0164,                                 !- Year Escalation 4
  1.0541,                                 !- Year Escalation 5
  1.0928,                                 !- Year Escalation 6
  1.1267,                                 !- Year Escalation 7
  1.1580,                                 !- Year Escalation 8
  1.1792,                                 !- Year Escalation 9
  1.1967,                                 !- Year Escalation 10
  1.2200,                                 !- Year Escalation 11
  1.2333,                                 !- Year Escalation 12
  1.2566,                                 !- Year Escalation 13
  1.2709,                                 !- Year Escalation 14
  1.2826,                                 !- Year Escalation 15
  1.2985,                                 !- Year Escalation 16
  1.3102,                                 !- Year Escalation 17
  1.3250,                                 !- Year Escalation 18
  1.3261,                                 !- Year Escalation 19
  1.3282,                                 !- Year Escalation 20
  1.3324,                                 !- Year Escalation 21
  1.3356,                                 !- Year Escalation 22
  1.3431,                                 !- Year Escalation 23
  1.3510,                                 !- Year Escalation 24
  1.3568,                                 !- Year Escalation 25
  1.3606,                                 !- Year Escalation 26
  1.3637,                                 !- Year Escalation 27
  1.3674,                                 !- Year Escalation 28
  1.3706,                                 !- Year Escalation 29
  1.3743;                                 !- Year Escalation 30

LifeCycleCost:UsePriceEscalation,
  U.S. Avg  Commercial-Residual Oil,      !- Name
  FuelOil#2,                              !- Resource
  2011,                                   !- Escalation Start Year
  January,                                !- Escalation Start Month
  0.8469,                                 !- Year Escalation 1
  0.8257,                                 !- Year Escalation 2
  0.8681,                                 !- Year Escalation 3
  0.8988,                                 !- Year Escalation 4
  0.9289,                                 !- Year Escalation 5
  0.9604,                                 !- Year Escalation 6
  0.9897,                                 !- Year Escalation 7
  1.0075,                                 !- Year Escalation 8
  1.0314,                                 !- Year Escalation 9
  1.0554,                                 !- Year Escalation 10
  1.0861,                                 !- Year Escalation 11
  1.1278,                                 !- Year Escalation 12
  1.1497,                                 !- Year Escalation 13
  1.1620,                                 !- Year Escalation 14
  1.1743,                                 !- Year Escalation 15
  1.1852,                                 !- Year Escalation 16
  1.1948,                                 !- Year Escalation 17
  1.2037,                                 !- Year Escalation 18
  1.2071,                                 !- Year Escalation 19
  1.2119,                                 !- Year Escalation 20
  1.2139,                                 !- Year Escalation 21
  1.2194,                                 !- Year Escalation 22
  1.2276,                                 !- Year Escalation 23
  1.2365,                                 !- Year Escalation 24
  1.2420,                                 !- Year Escalation 25
  1.2461,                                 !- Year Escalation 26
  1.2509,                                 !- Year Escalation 27
  1.2550,                                 !- Year Escalation 28
  1.2591,                                 !- Year Escalation 29
  1.2638;                                 !- Year Escalation 30

LifeCycleCost:UsePriceEscalation,
  U.S. Avg  Commercial-Natural gas,       !- Name
  NaturalGas,                             !- Resource
  2011,                                   !- Escalation Start Year
  January,                                !- Escalation Start Month
  0.9823,                                 !- Year Escalation 1
  0.9557,                                 !- Year Escalation 2
  0.9279,                                 !- Year Escalation 3
  0.9257,                                 !- Year Escalation 4
  0.9346,                                 !- Year Escalation 5
  0.9412,                                 !- Year Escalation 6
  0.9512,                                 !- Year Escalation 7
  0.9645,                                 !- Year Escalation 8
  0.9856,                                 !- Year Escalation 9
  1.0067,                                 !- Year Escalation 10
  1.0222,                                 !- Year Escalation 11
  1.0410,                                 !- Year Escalation 12
  1.0610,                                 !- Year Escalation 13
  1.0787,                                 !- Year Escalation 14
  1.0942,                                 !- Year Escalation 15
  1.1098,                                 !- Year Escalation 16
  1.1220,                                 !- Year Escalation 17
  1.1308,                                 !- Year Escalation 18
  1.1386,                                 !- Year Escalation 19
  1.1486,                                 !- Year Escalation 20
  1.1619,                                 !- Year Escalation 21
  1.1763,                                 !- Year Escalation 22
  1.1918,                                 !- Year Escalation 23
  1.2118,                                 !- Year Escalation 24
  1.2284,                                 !- Year Escalation 25
  1.2439,                                 !- Year Escalation 26
  1.2605,                                 !- Year Escalation 27
  1.2772,                                 !- Year Escalation 28
  1.2938,                                 !- Year Escalation 29
  1.3115;                                 !- Year Escalation 30

LifeCycleCost:UsePriceEscalation,
  U.S. Avg  Commercial-Coal,              !- Name
  Coal,                                   !- Resource
  2011,                                   !- Escalation Start Year
  January,                                !- Escalation Start Month
  0.9970,                                 !- Year Escalation 1
  1.0089,                                 !- Year Escalation 2
  1.0089,                                 !- Year Escalation 3
  0.9941,                                 !- Year Escalation 4
  0.9941,                                 !- Year Escalation 5
  1.0000,                                 !- Year Escalation 6
  1.0030,                                 !- Year Escalation 7
  1.0059,                                 !- Year Escalation 8
  1.0089,                                 !- Year Escalation 9
  1.0119,                                 !- Year Escalation 10
  1.0148,                                 !- Year Escalation 11
  1.0178,                                 !- Year Escalation 12
  1.0208,                                 !- Year Escalation 13
  1.0267,                                 !- Year Escalation 14
  1.0297,                                 !- Year Escalation 15
  1.0356,                                 !- Year Escalation 16
  1.0415,                                 !- Year Escalation 17
  1.0534,                                 !- Year Escalation 18
  1.0564,                                 !- Year Escalation 19
  1.0593,                                 !- Year Escalation 20
  1.0653,                                 !- Year Escalation 21
  1.0712,                                 !- Year Escalation 22
  1.0742,                                 !- Year Escalation 23
  1.0801,                                 !- Year Escalation 24
  1.0831,                                 !- Year Escalation 25
  1.0831,                                 !- Year Escalation 26
  1.0861,                                 !- Year Escalation 27
  1.0890,                                 !- Year Escalation 28
  1.0920,                                 !- Year Escalation 29
  1.0950;                                 !- Year Escalation 30

Building,
  Building 1,                             !- Name
  0,                                      !- North Axis {deg}
  City,                                   !- Terrain
  ,                                       !- Loads Convergence Tolerance Value
  ,                                       !- Temperature Convergence Tolerance Value {deltaC}
  FullInteriorAndExteriorWithReflections, !- Solar Distribution
  ,                                       !- Maximum Number of Warmup Days
  ;                                       !- Minimum Number of Warmup Days

Zone,
  zone_0,                                 !- Name
  ,                                       !- Direction of Relative North {deg}
  ,                                       !- X Origin {m}
  ,                                       !- Y Origin {m}
  ,                                       !- Z Origin {m}
  ,                                       !- Type
  ,                                       !- Multiplier
  ,                                       !- Ceiling Height {m}
  ,                                       !- Volume {m3}
  ,                                       !- Floor Area {m2}
  ,                                       !- Zone Inside Convection Algorithm
  ;                                       !- Zone Outside Convection Algorithm

BuildingSurface:Detailed,
  zone_0_Srf_0,                           !- Name
  Wall,                                   !- Surface Type
  Exterior Wall,                          !- Construction Name
  zone_0,                                 !- Zone Name
  Outdoors,                               !- Outside Boundary Condition
  ,                                       !- Outside Boundary Condition Object
  Sunexposed,                             !- Sun Exposure
  Windexposed,                            !- Wind Exposure
  ,                                       !- View Factor to Ground
  ,                                       !- Number of Vertices
  24, 0, 9,                               !- X,Y,Z Vertex 1 {m}
  24, 0, 6,                               !- X,Y,Z Vertex 2 {m}
  57, 0, 6,                               !- X,Y,Z Vertex 3 {m}
  57, 0, 9;                               !- X,Y,Z Vertex 4 {m}

FenestrationSurface:Detailed,
  zone_0_Srf_0_glz_0,                     !- Name
  Window,                                 !- Surface Type
  Exterior Window,                        !- Construction Name
  zone_0_Srf_0,                           !- Building Surface Name
  ,                                       !- Outside Boundary Condition Object
  ,                                       !- View Factor to Ground
  ,                                       !- Shading Control Name
  ,                                       !- Frame and Divider Name
  ,                                       !- Multiplier
  ,                                       !- Number of Vertices
  24.2426471710205, 0, 8.80000019073486,  !- X,Y,Z Vertex 1 {m}
  24.2426471710205, 0, 6.80000019073486,  !- X,Y,Z Vertex 2 {m}
  25.6985301971436, 0, 6.80000019073486,  !- X,Y,Z Vertex 3 {m}
  25.6985301971436, 0, 8.80000019073486;  !- X,Y,Z Vertex 4 {m}

FenestrationSurface:Detailed,
  zone_0_Srf_0_glz_1,                     !- Name
  Window,                                 !- Surface Type
  Exterior Window,                        !- Construction Name
  zone_0_Srf_0,                           !- Building Surface Name
  ,                                       !- Outside Boundary Condition Object
  ,                                       !- View Factor to Ground
  ,                                       !- Shading Control Name
  ,                                       !- Frame and Divider Name
  ,                                       !- Multiplier
  ,                                       !- Number of Vertices
  26.1838226318359, 0, 8.80000019073486,  !- X,Y,Z Vertex 1 {m}
  26.1838226318359, 0, 6.80000019073486,  !- X,Y,Z Vertex 2 {m}
  27.639705657959, 0, 6.80000019073486,   !- X,Y,Z Vertex 3 {m}
  27.639705657959, 0, 8.80000019073486;   !- X,Y,Z Vertex 4 {m}

FenestrationSurface:Detailed,
  zone_0_Srf_0_glz_10,                    !- Name
  Window,                                 !- Surface Type
  Exterior Window,                        !- Construction Name
  zone_0_Srf_0,                           !- Building Surface Name
  ,                                       !- Outside Boundary Condition Object
  ,                                       !- View Factor to Ground
  ,                                       !- Shading Control Name
  ,                                       !- Frame and Divider Name
  ,                                       !- Multiplier
  ,                                       !- Number of Vertices
  43.654411315918, 0, 8.80000019073486,   !- X,Y,Z Vertex 1 {m}
  43.654411315918, 0, 6.80000019073486,   !- X,Y,Z Vertex 2 {m}
  45.110294342041, 0, 6.80000019073486,   !- X,Y,Z Vertex 3 {m}
  45.110294342041, 0, 8.80000019073486;   !- X,Y,Z Vertex 4 {m}

FenestrationSurface:Detailed,
  zone_0_Srf_0_glz_11,                    !- Name
  Window,                                 !- Surface Type
  Exterior Window,                        !- Construction Name
  zone_0_Srf_0,                           !- Building Surface Name
  ,                                       !- Outside Boundary Condition Object
  ,                                       !- View Factor to Ground
  ,                                       !- Shading Control Name
  ,                                       !- Frame and Divider Name
  ,                                       !- Multiplier
  ,                                       !- Number of Vertices
  45.595588684082, 0, 8.80000019073486,   !- X,Y,Z Vertex 1 {m}
  45.595588684082, 0, 6.80000019073486,   !- X,Y,Z Vertex 2 {m}
  47.0514717102051, 0, 6.80000019073486,  !- X,Y,Z Vertex 3 {m}
  47.0514717102051, 0, 8.80000019073486;  !- X,Y,Z Vertex 4 {m}

FenestrationSurface:Detailed,
  zone_0_Srf_0_glz_12,                    !- Name
  Window,                                 !- Surface Type
  Exterior Window,                        !- Construction Name
  zone_0_Srf_0,                           !- Building Surface Name
  ,                                       !- Outside Boundary Condition Object
  ,                                       !- View Factor to Ground
  ,                                       !- Shading Control Name
  ,                                       !- Frame and Divider Name
  ,                                       !- Multiplier
  ,                                       !- Number of Vertices
  47.5367660522461, 0, 8.80000019073486,  !- X,Y,Z Vertex 1 {m}
  47.5367660522461, 0, 6.80000019073486,  !- X,Y,Z Vertex 2 {m}
  48.9926452636719, 0, 6.80000019073486,  !- X,Y,Z Vertex 3 {m}
  48.9926452636719, 0, 8.80000019073486;  !- X,Y,Z Vertex 4 {m}

FenestrationSurface:Detailed,
  zone_0_Srf_0_glz_13,                    !- Name
  Window,                                 !- Surface Type
  Exterior Window,                        !- Construction Name
  zone_0_Srf_0,                           !- Building Surface Name
  ,                                       !- Outside Boundary Condition Object
  ,                                       !- View Factor to Ground
  ,                                       !- Shading Control Name
  ,                                       !- Frame and Divider Name
  ,                                       !- Multiplier
  ,                                       !- Number of Vertices
  49.4779396057129, 0, 8.80000019073486,  !- X,Y,Z Vertex 1 {m}
  49.4779396057129, 0, 6.80000019073486,  !- X,Y,Z Vertex 2 {m}
  50.9338226318359, 0, 6.80000019073486,  !- X,Y,Z Vertex 3 {m}
  50.9338226318359, 0, 8.80000019073486;  !- X,Y,Z Vertex 4 {m}

FenestrationSurface:Detailed,
  zone_0_Srf_0_glz_14,                    !- Name
  Window,                                 !- Surface Type
  Exterior Window,                        !- Construction Name
  zone_0_Srf_0,                           !- Building Surface Name
  ,                                       !- Outside Boundary Condition Object
  ,                                       !- View Factor to Ground
  ,                                       !- Shading Control Name
  ,                                       !- Frame and Divider Name
  ,                                       !- Multiplier
  ,                                       !- Number of Vertices
  51.419116973877, 0, 8.80000019073486,   !- X,Y,Z Vertex 1 {m}
  51.419116973877, 0, 6.80000019073486,   !- X,Y,Z Vertex 2 {m}
  52.875, 0, 6.80000019073486,            !- X,Y,Z Vertex 3 {m}
  52.875, 0, 8.80000019073486;            !- X,Y,Z Vertex 4 {m}

FenestrationSurface:Detailed,
  zone_0_Srf_0_glz_15,                    !- Name
  Window,                                 !- Surface Type
  Exterior Window,                        !- Construction Name
  zone_0_Srf_0,                           !- Building Surface Name
  ,                                       !- Outside Boundary Condition Object
  ,                                       !- View Factor to Ground
  ,                                       !- Shading Control Name
  ,                                       !- Frame and Divider Name
  ,                                       !- Multiplier
  ,                                       !- Number of Vertices
  53.360294342041, 0, 8.80000019073486,   !- X,Y,Z Vertex 1 {m}
  53.360294342041, 0, 6.80000019073486,   !- X,Y,Z Vertex 2 {m}
  54.8161773681641, 0, 6.80000019073486,  !- X,Y,Z Vertex 3 {m}
  54.8161773681641, 0, 8.80000019073486;  !- X,Y,Z Vertex 4 {m}

FenestrationSurface:Detailed,
  zone_0_Srf_0_glz_16,                    !- Name
  Window,                                 !- Surface Type
  Exterior Window,                        !- Construction Name
  zone_0_Srf_0,                           !- Building Surface Name
  ,                                       !- Outside Boundary Condition Object
  ,                                       !- View Factor to Ground
  ,                                       !- Shading Control Name
  ,                                       !- Frame and Divider Name
  ,                                       !- Multiplier
  ,                                       !- Number of Vertices
  55.3014717102051, 0, 8.80000019073486,  !- X,Y,Z Vertex 1 {m}
  55.3014717102051, 0, 6.80000019073486,  !- X,Y,Z Vertex 2 {m}
  56.7573547363281, 0, 6.80000019073486,  !- X,Y,Z Vertex 3 {m}
  56.7573547363281, 0, 8.80000019073486;  !- X,Y,Z Vertex 4 {m}

FenestrationSurface:Detailed,
  zone_0_Srf_0_glz_2,                     !- Name
  Window,                                 !- Surface Type
  Exterior Window,                        !- Construction Name
  zone_0_Srf_0,                           !- Building Surface Name
  ,                                       !- Outside Boundary Condition Object
  ,                                       !- View Factor to Ground
  ,                                       !- Shading Control Name
  ,                                       !- Frame and Divider Name
  ,                                       !- Multiplier
  ,                                       !- Number of Vertices
  28.125, 0, 8.80000019073486,            !- X,Y,Z Vertex 1 {m}
  28.125, 0, 6.80000019073486,            !- X,Y,Z Vertex 2 {m}
  29.580883026123, 0, 6.80000019073486,   !- X,Y,Z Vertex 3 {m}
  29.580883026123, 0, 8.80000019073486;   !- X,Y,Z Vertex 4 {m}

FenestrationSurface:Detailed,
  zone_0_Srf_0_glz_3,                     !- Name
  Window,                                 !- Surface Type
  Exterior Window,                        !- Construction Name
  zone_0_Srf_0,                           !- Building Surface Name
  ,                                       !- Outside Boundary Condition Object
  ,                                       !- View Factor to Ground
  ,                                       !- Shading Control Name
  ,                                       !- Frame and Divider Name
  ,                                       !- Multiplier
  ,                                       !- Number of Vertices
  30.0661773681641, 0, 8.80000019073486,  !- X,Y,Z Vertex 1 {m}
  30.0661773681641, 0, 6.80000019073486,  !- X,Y,Z Vertex 2 {m}
  31.5220584869385, 0, 6.80000019073486,  !- X,Y,Z Vertex 3 {m}
  31.5220584869385, 0, 8.80000019073486;  !- X,Y,Z Vertex 4 {m}

FenestrationSurface:Detailed,
  zone_0_Srf_0_glz_4,                     !- Name
  Window,                                 !- Surface Type
  Exterior Window,                        !- Construction Name
  zone_0_Srf_0,                           !- Building Surface Name
  ,                                       !- Outside Boundary Condition Object
  ,                                       !- View Factor to Ground
  ,                                       !- Shading Control Name
  ,                                       !- Frame and Divider Name
  ,                                       !- Multiplier
  ,                                       !- Number of Vertices
  32.0073547363281, 0, 8.80000019073486,  !- X,Y,Z Vertex 1 {m}
  32.0073547363281, 0, 6.80000019073486,  !- X,Y,Z Vertex 2 {m}
  33.4632339477539, 0, 6.80000019073486,  !- X,Y,Z Vertex 3 {m}
  33.4632339477539, 0, 8.80000019073486;  !- X,Y,Z Vertex 4 {m}

FenestrationSurface:Detailed,
  zone_0_Srf_0_glz_5,                     !- Name
  Window,                                 !- Surface Type
  Exterior Window,                        !- Construction Name
  zone_0_Srf_0,                           !- Building Surface Name
  ,                                       !- Outside Boundary Condition Object
  ,                                       !- View Factor to Ground
  ,                                       !- Shading Control Name
  ,                                       !- Frame and Divider Name
  ,                                       !- Multiplier
  ,                                       !- Number of Vertices
  33.9485282897949, 0, 8.80000019073486,  !- X,Y,Z Vertex 1 {m}
  33.9485282897949, 0, 6.80000019073486,  !- X,Y,Z Vertex 2 {m}
  35.404411315918, 0, 6.80000019073486,   !- X,Y,Z Vertex 3 {m}
  35.404411315918, 0, 8.80000019073486;   !- X,Y,Z Vertex 4 {m}

FenestrationSurface:Detailed,
  zone_0_Srf_0_glz_6,                     !- Name
  Window,                                 !- Surface Type
  Exterior Window,                        !- Construction Name
  zone_0_Srf_0,                           !- Building Surface Name
  ,                                       !- Outside Boundary Condition Object
  ,                                       !- View Factor to Ground
  ,                                       !- Shading Control Name
  ,                                       !- Frame and Divider Name
  ,                                       !- Multiplier
  ,                                       !- Number of Vertices
  35.889705657959, 0, 8.80000019073486,   !- X,Y,Z Vertex 1 {m}
  35.889705657959, 0, 6.80000019073486,   !- X,Y,Z Vertex 2 {m}
  37.345588684082, 0, 6.80000019073486,   !- X,Y,Z Vertex 3 {m}
  37.345588684082, 0, 8.80000019073486;   !- X,Y,Z Vertex 4 {m}

FenestrationSurface:Detailed,
  zone_0_Srf_0_glz_7,                     !- Name
  Window,                                 !- Surface Type
  Exterior Window,                        !- Construction Name
  zone_0_Srf_0,                           !- Building Surface Name
  ,                                       !- Outside Boundary Condition Object
  ,                                       !- View Factor to Ground
  ,                                       !- Shading Control Name
  ,                                       !- Frame and Divider Name
  ,                                       !- Multiplier
  ,                                       !- Number of Vertices
  37.830883026123, 0, 8.80000019073486,   !- X,Y,Z Vertex 1 {m}
  37.830883026123, 0, 6.80000019073486,   !- X,Y,Z Vertex 2 {m}
  39.2867660522461, 0, 6.80000019073486,  !- X,Y,Z Vertex 3 {m}
  39.2867660522461, 0, 8.80000019073486;  !- X,Y,Z Vertex 4 {m}

FenestrationSurface:Detailed,
  zone_0_Srf_0_glz_8,                     !- Name
  Window,                                 !- Surface Type
  Exterior Window,                        !- Construction Name
  zone_0_Srf_0,                           !- Building Surface Name
  ,                                       !- Outside Boundary Condition Object
  ,                                       !- View Factor to Ground
  ,                                       !- Shading Control Name
  ,                                       !- Frame and Divider Name
  ,                                       !- Multiplier
  ,                                       !- Number of Vertices
  39.7720603942871, 0, 8.80000019073486,  !- X,Y,Z Vertex 1 {m}
  39.7720603942871, 0, 6.80000019073486,  !- X,Y,Z Vertex 2 {m}
  41.2279396057129, 0, 6.80000019073486,  !- X,Y,Z Vertex 3 {m}
  41.2279396057129, 0, 8.80000019073486;  !- X,Y,Z Vertex 4 {m}

FenestrationSurface:Detailed,
  zone_0_Srf_0_glz_9,                     !- Name
  Window,                                 !- Surface Type
  Exterior Window,                        !- Construction Name
  zone_0_Srf_0,                           !- Building Surface Name
  ,                                       !- Outside Boundary Condition Object
  ,                                       !- View Factor to Ground
  ,                                       !- Shading Control Name
  ,                                       !- Frame and Divider Name
  ,                                       !- Multiplier
  ,                                       !- Number of Vertices
  41.7132339477539, 0, 8.80000019073486,  !- X,Y,Z Vertex 1 {m}
  41.7132339477539, 0, 6.80000019073486,  !- X,Y,Z Vertex 2 {m}
  43.169116973877, 0, 6.80000019073486,   !- X,Y,Z Vertex 3 {m}
  43.169116973877, 0, 8.80000019073486;   !- X,Y,Z Vertex 4 {m}

BuildingSurface:Detailed,
  zone_0_Srf_1,                           !- Name
  Wall,                                   !- Surface Type
  Exterior Wall,                          !- Construction Name